1
 x13



                                ***********************************************
                                *                                             *
                                *  NUMERICAL ELECTROMAGNETICS CODE (NEC-5)    *
                                *                                             *
                                ***********************************************




                      **********************************************************

                                                                                                       

                      **********************************************************





                                 - - - STRUCTURE SPECIFICATION - - -

                                     COORDINATES MUST BE INPUT IN
                                     METERS OR BE SCALED TO METERS
                                     BEFORE STRUCTURE INPUT IS ENDED

 Model definition commands:

 GW    1    13 -1.48600E+00  0.00000E+00  1.50000E+01  1.48550E+00  0.00000E+00  1.50000E+01  7.95000E-03
 GW    2    13 -1.43600E+00  1.49500E+00  1.50000E+01  1.43550E+00  1.49500E+00  1.50000E+01  7.95000E-03
 GW    3    13 -1.33100E+00  3.22500E+00  1.50000E+01  1.33050E+00  3.22500E+00  1.50000E+01  7.95000E-03
 GW    4    13 -1.32000E+00  5.65400E+00  1.50000E+01  1.31950E+00  5.65400E+00  1.50000E+01  7.95000E-03
 GW    5    13 -1.32400E+00  7.58800E+00  1.50000E+01  1.32350E+00  7.58800E+00  1.50000E+01  7.95000E-03
 GW    6    13 -1.19300E+00  1.01120E+01  1.50000E+01  1.19250E+00  1.01120E+01  1.50000E+01  7.95000E-03
 GE    1    0

   GROUND PLANE SPECIFIED.

   WHERE WIRE ENDS TOUCH GROUND, CURRENT WILL BE INTERPOLATED TO IMAGE IN GROUND PLANE.


 Number of nodes :    84
 Number of wire elements :    78
 Number of patch elements:     0
 Number unknowns:    72




 ***** INPUT LINE  1  EX   0    2    7    0  1.00000E+00  0.00000E+00  0.00000E+00  0.00000E+00  0.00000E+00  0.00000E+00
 ***** INPUT LINE  2  GN   2    0    0    0  1.00000E+01  2.00000E-03  0.00000E+00  0.00000E+00  0.00000E+00  0.00000E+00
 ***** INPUT LINE  3  FR   0    1    0    0  4.95000E+01  0.00000E+00  0.00000E+00  0.00000E+00  0.00000E+00  0.00000E+00
 ***** INPUT LINE  4  RP   0   90  361 1000  0.00000E+00  0.00000E+00  1.00000E+00  1.00000E+00  0.00000E+00  0.00000E+00




                                 - - - - - - FREQUENCY - - - - - -

                                    FREQUENCY= 4.9500E+01 MHZ
                                    WAVELENGTH= 6.0566E+00 METERS



                                  - - - ANTENNA ENVIRONMENT - - -


 GMPINO: Unable to open file SOMMPD.NEX                              
 Will compute Sommerfeld-ground tables
                                        FINITE GROUND.  SOMMERFELD SOLUTION
                                        RELATIVE DIELECTRIC CONST.= 10.000
                                        CONDUCTIVITY= 2.000E-03 MHOS/METER
                                        COMPLEX DIELECTRIC CONSTANT= 1.00000E+01-7.26303E-01



                               - - - STRUCTURE IMPEDANCE LOADING - - -

                                   THIS STRUCTURE IS NOT LOADED
ALLOCATE CM:           5184



                                - - - MATRIX TIMING - - -

                        FILL=    0.020 SEC.,  FACTOR=    0.000 SEC.



                                          - - - ANTENNA INPUT PARAMETERS - - -

   TAG   SEG.    VOLTAGE (VOLTS)         CURRENT (AMPS)         IMPEDANCE (OHMS)        ADMITTANCE (MHOS)      POWER
   NO.   NO.    REAL        IMAG.       REAL        IMAG.       REAL        IMAG.       REAL        IMAG.     (WATTS)
   2    20 1  1.0000E+00  0.0000E+00  2.2024E-02 -6.0144E-03  4.2255E+01  1.1539E+01  2.2024E-02 -6.0144E-03  1.1012E-02



                                       - - - Wire Currents - - -

                             Lengths normalized by wavelength (or 2.*pi/CABS(k))

  Elem.  Tag            Coord. of seg. center          Seg.            - - - Current (Amps) - - -
   No.   No.     X            Y            Z           Length       Real         Imag.        Mag.         Phase
      1    1 -2.26483E-01  0.00000E+00  2.47665E+00  3.77404E-02 -8.60983E-04  1.28409E-03  1.54602E-03  123.8419
      2    1 -1.88743E-01  0.00000E+00  2.47665E+00  3.77404E-02 -2.42853E-03  3.61015E-03  4.35097E-03  123.9285
      3    1 -1.51003E-01  0.00000E+00  2.47665E+00  3.77404E-02 -3.73777E-03  5.53281E-03  6.67704E-03  124.0416
      4    1 -1.13262E-01  0.00000E+00  2.47665E+00  3.77404E-02 -4.81934E-03  7.10816E-03  8.58790E-03  124.1373
      5    1 -7.55220E-02  0.00000E+00  2.47665E+00  3.77404E-02 -5.63159E-03  8.28374E-03  1.00167E-02  124.2093
      6    1 -3.77816E-02  0.00000E+00  2.47665E+00  3.77404E-02 -6.13602E-03  9.01050E-03  1.09014E-02  124.2543
      7    1 -4.12775E-05  0.00000E+00  2.47665E+00  3.77404E-02 -6.30695E-03  9.25588E-03  1.12004E-02  124.2705
      8    1  3.76991E-02  0.00000E+00  2.47665E+00  3.77404E-02 -6.13548E-03  9.00874E-03  1.08996E-02  124.2572
      9    1  7.54394E-02  0.00000E+00  2.47665E+00  3.77404E-02 -5.63061E-03  8.28063E-03  1.00136E-02  124.2146
     10    1  1.13180E-01  0.00000E+00  2.47665E+00  3.77404E-02 -4.81806E-03  7.10440E-03  8.58407E-03  124.1443
     11    1  1.50920E-01  0.00000E+00  2.47665E+00  3.77404E-02 -3.73643E-03  5.52922E-03  6.67331E-03  124.0493
     12    1  1.88660E-01  0.00000E+00  2.47665E+00  3.77404E-02 -2.42743E-03  3.60750E-03  4.34815E-03  123.9360
     13    1  2.26401E-01  0.00000E+00  2.47665E+00  3.77404E-02 -8.60532E-04  1.28308E-03  1.54493E-03  123.8488
     14    2 -2.18863E-01  2.46840E-01  2.47665E+00  3.64703E-02  3.08979E-03 -1.11390E-03  3.28445E-03  -19.8248
     15    2 -1.82393E-01  2.46840E-01  2.47665E+00  3.64703E-02  8.66275E-03 -3.07437E-03  9.19211E-03  -19.5395
     16    2 -1.45922E-01  2.46840E-01  2.47665E+00  3.64703E-02  1.32328E-02 -4.58154E-03  1.40035E-02  -19.0971
     17    2 -1.09452E-01  2.46840E-01  2.47665E+00  3.64703E-02  1.69597E-02 -5.70077E-03  1.78922E-02  -18.5794
     18    2 -7.29818E-02  2.46840E-01  2.47665E+00  3.64703E-02  1.97324E-02 -6.39613E-03  2.07432E-02  -17.9598
     19    2 -3.65116E-02  2.46840E-01  2.47665E+00  3.64703E-02  2.14442E-02 -6.62910E-03  2.24455E-02  -17.1781
     20    2 -4.12775E-05  2.46840E-01  2.47665E+00  3.64703E-02  2.20234E-02 -6.31989E-03  2.29122E-02  -16.0115
     21    2  3.64290E-02  2.46840E-01  2.47665E+00  3.64703E-02  2.14449E-02 -6.10744E-03  2.22977E-02  -15.8968
     22    2  7.28993E-02  2.46840E-01  2.47665E+00  3.64703E-02  1.97337E-02 -6.00141E-03  2.06261E-02  -16.9156
     23    2  1.09370E-01  2.46840E-01  2.47665E+00  3.64703E-02  1.69614E-02 -5.38094E-03  1.77945E-02  -17.6014
     24    2  1.45840E-01  2.46840E-01  2.47665E+00  3.64703E-02  1.32346E-02 -4.33971E-03  1.39280E-02  -18.1546
     25    2  1.82310E-01  2.46840E-01  2.47665E+00  3.64703E-02  8.66422E-03 -2.91895E-03  9.14270E-03  -18.6185
     26    2  2.18780E-01  2.46840E-01  2.47665E+00  3.64703E-02  3.09040E-03 -1.05898E-03  3.26680E-03  -18.9150
     27    3 -2.02860E-01  5.32480E-01  2.47665E+00  3.38031E-02 -2.09637E-03 -4.06213E-04  2.13537E-03 -169.0337
     28    3 -1.69057E-01  5.32480E-01  2.47665E+00  3.38031E-02 -5.84091E-03 -1.13126E-03  5.94946E-03 -169.0387
     29    3 -1.35254E-01  5.32480E-01  2.47665E+00  3.38031E-02 -8.85607E-03 -1.71416E-03  9.02044E-03 -169.0454
     30    3 -1.01451E-01  5.32480E-01  2.47665E+00  3.38031E-02 -1.12871E-02 -2.18354E-03  1.14964E-02 -169.0511
     31    3 -6.76475E-02  5.32480E-01  2.47665E+00  3.38031E-02 -1.30814E-02 -2.52975E-03  1.33237E-02 -169.0549
     32    3 -3.38444E-02  5.32480E-01  2.47665E+00  3.38031E-02 -1.41834E-02 -2.74244E-03  1.44461E-02 -169.0565
     33    3 -4.12775E-05  5.32480E-01  2.47665E+00  3.38031E-02 -1.45550E-02 -2.81451E-03  1.48246E-02 -169.0558
     34    3  3.37618E-02  5.32480E-01  2.47665E+00  3.38031E-02 -1.41830E-02 -2.74338E-03  1.44459E-02 -169.0526
     35    3  6.75649E-02  5.32480E-01  2.47665E+00  3.38031E-02 -1.30808E-02 -2.53144E-03  1.33235E-02 -169.0473
     36    3  1.01368E-01  5.32480E-01  2.47665E+00  3.38031E-02 -1.12863E-02 -2.18565E-03  1.14960E-02 -169.0400
     37    3  1.35171E-01  5.32480E-01  2.47665E+00  3.38031E-02 -8.85525E-03 -1.71626E-03  9.02003E-03 -169.0313
     38    3  1.68974E-01  5.32480E-01  2.47665E+00  3.38031E-02 -5.84023E-03 -1.13289E-03  5.94909E-03 -169.0221
     39    3  2.02777E-01  5.32480E-01  2.47665E+00  3.38031E-02 -2.09609E-03 -4.06847E-04  2.13521E-03 -169.0156
     40    4 -2.01183E-01  9.33532E-01  2.47665E+00  3.35237E-02  1.25513E-03  1.17253E-03  1.71761E-03   43.0512
     41    4 -1.67660E-01  9.33532E-01  2.47665E+00  3.35237E-02  3.49135E-03  3.26410E-03  4.77953E-03   43.0734
     42    4 -1.34136E-01  9.33532E-01  2.47665E+00  3.35237E-02  5.28293E-03  4.94390E-03  7.23543E-03   43.1012
     43    4 -1.00612E-01  9.33532E-01  2.47665E+00  3.35237E-02  6.72246E-03  6.29590E-03  9.21031E-03   43.1233
     44    4 -6.70887E-02  9.33532E-01  2.47665E+00  3.35237E-02  7.78232E-03  7.29252E-03  1.06651E-02   43.1390
     45    4 -3.35650E-02  9.33532E-01  2.47665E+00  3.35237E-02  8.43224E-03  7.90413E-03  1.15576E-02   43.1484
     46    4 -4.12775E-05  9.33532E-01  2.47665E+00  3.35237E-02  8.65128E-03  8.11033E-03  1.18584E-02   43.1515
     47    4  3.34824E-02  9.33532E-01  2.47665E+00  3.35237E-02  8.43211E-03  7.90397E-03  1.15574E-02   43.1483
     48    4  6.70061E-02  9.33532E-01  2.47665E+00  3.35237E-02  7.78208E-03  7.29223E-03  1.06648E-02   43.1388
     49    4  1.00530E-01  9.33532E-01  2.47665E+00  3.35237E-02  6.72215E-03  6.29552E-03  9.20982E-03   43.1229
     50    4  1.34054E-01  9.33532E-01  2.47665E+00  3.35237E-02  5.28260E-03  4.94350E-03  7.23492E-03   43.1007
     51    4  1.67577E-01  9.33532E-01  2.47665E+00  3.35237E-02  3.49107E-03  3.26378E-03  4.77911E-03   43.0728
     52    4  2.01101E-01  9.33532E-01  2.47665E+00  3.35237E-02  1.25502E-03  1.17240E-03  1.71744E-03   43.0505
     53    5 -2.01793E-01  1.25286E+00  2.47665E+00  3.36253E-02 -3.95349E-04 -1.50841E-03  1.55936E-03 -104.6867
     54    5 -1.68168E-01  1.25286E+00  2.47665E+00  3.36253E-02 -1.10066E-03 -4.19762E-03  4.33952E-03 -104.6928
     55    5 -1.34542E-01  1.25286E+00  2.47665E+00  3.36253E-02 -1.66729E-03 -6.35483E-03  6.56991E-03 -104.7011
     56    5 -1.00917E-01  1.25286E+00  2.47665E+00  3.36253E-02 -2.12355E-03 -8.08953E-03  8.36361E-03 -104.7086
     57    5 -6.72919E-02  1.25286E+00  2.47665E+00  3.36253E-02 -2.46004E-03 -9.36746E-03  9.68509E-03 -104.7145
     58    5 -3.36666E-02  1.25286E+00  2.47665E+00  3.36253E-02 -2.66664E-03 -1.01514E-02  1.04958E-02 -104.7183
     59    5 -4.12775E-05  1.25286E+00  2.47665E+00  3.36253E-02 -2.73634E-03 -1.04157E-02  1.07691E-02 -104.7198
     60    5  3.35840E-02  1.25286E+00  2.47665E+00  3.36253E-02 -2.66671E-03 -1.01513E-02  1.04957E-02 -104.7188
     61    5  6.72093E-02  1.25286E+00  2.47665E+00  3.36253E-02 -2.46018E-03 -9.36732E-03  9.68500E-03 -104.7155
     62    5  1.00835E-01  1.25286E+00  2.47665E+00  3.36253E-02 -2.12373E-03 -8.08935E-03  8.36348E-03 -104.7101
     63    5  1.34460E-01  1.25286E+00  2.47665E+00  3.36253E-02 -1.66747E-03 -6.35464E-03  6.56977E-03 -104.7031
     64    5  1.68085E-01  1.25286E+00  2.47665E+00  3.36253E-02 -1.10081E-03 -4.19746E-03  4.33940E-03 -104.6952
     65    5  2.01711E-01  1.25286E+00  2.47665E+00  3.36253E-02 -3.95410E-04 -1.50834E-03  1.55931E-03 -104.6895
     66    6 -1.81827E-01  1.66959E+00  2.47665E+00  3.02977E-02 -2.68527E-04  5.74701E-04  6.34341E-04  115.0442
     67    6 -1.51530E-01  1.66959E+00  2.47665E+00  3.02977E-02 -7.41529E-04  1.58695E-03  1.75165E-03  115.0451
     68    6 -1.21232E-01  1.66959E+00  2.47665E+00  3.02977E-02 -1.11233E-03  2.38043E-03  2.62750E-03  115.0457
     69    6 -9.09344E-02  1.66959E+00  2.47665E+00  3.02977E-02 -1.40627E-03  3.00952E-03  3.32187E-03  115.0454
     70    6 -6.06367E-02  1.66959E+00  2.47665E+00  3.02977E-02 -1.62063E-03  3.46836E-03  3.82831E-03  115.0449
     71    6 -3.03390E-02  1.66959E+00  2.47665E+00  3.02977E-02 -1.75127E-03  3.74804E-03  4.13700E-03  115.0443
     72    6 -4.12775E-05  1.66959E+00  2.47665E+00  3.02977E-02 -1.79516E-03  3.84204E-03  4.24074E-03  115.0439
     73    6  3.02564E-02  1.66959E+00  2.47665E+00  3.02977E-02 -1.75123E-03  3.74804E-03  4.13698E-03  115.0438
     74    6  6.05541E-02  1.66959E+00  2.47665E+00  3.02977E-02 -1.62055E-03  3.46835E-03  3.82827E-03  115.0439
     75    6  9.08518E-02  1.66959E+00  2.47665E+00  3.02977E-02 -1.40617E-03  3.00952E-03  3.32182E-03  115.0440
     76    6  1.21150E-01  1.66959E+00  2.47665E+00  3.02977E-02 -1.11222E-03  2.38043E-03  2.62744E-03  115.0437
     77    6  1.51447E-01  1.66959E+00  2.47665E+00  3.02977E-02 -7.41442E-04  1.58694E-03  1.75161E-03  115.0426
     78    6  1.81745E-01  1.66959E+00  2.47665E+00  3.02977E-02 -2.68491E-04  5.74697E-04  6.34322E-04  115.0414



                                        - - - POWER BUDGET - - -

                                           INPUT POWER   = 1.1012E-02 WATTS
                                           RADIATED POWER= 1.1012E-02 WATTS
                                           WIRE LOSS     = 0.0000E+00 WATTS
                                           EFFICIENCY    = 100.00 PERCENT



                                                - - - RADIATION PATTERNS - - -

  - - ANGLES - -          - POWER GAINS -        - - - POLARIZATION - - -    - - - E(THETA) - - -    - - - E(PHI) - - -
  THETA     PHI        VERT.   HOR.    TOTAL      AXIAL     TILT   SENSE     MAGNITUDE    PHASE      MAGNITUDE    PHASE 
 DEGREES  DEGREES       DB      DB      DB        RATIO     DEG.               VOLTS     DEGREES       VOLTS     DEGREES
    0.00     0.00     -12.97 -999.99  -12.97    0.00000     0.00  LINEAR    1.82635E-01    75.93    0.00000E+00     0.00
    1.00     0.00     -12.95 -999.99  -12.95    0.00000     0.00  LINEAR    1.82998E-01    75.57    0.00000E+00     0.00
    2.00     0.00     -12.89 -999.99  -12.89    0.00000     0.00  LINEAR    1.84240E-01    74.48    0.00000E+00     0.00
    3.00     0.00     -12.79 -999.99  -12.79    0.00000     0.00  LINEAR    1.86468E-01    72.71    0.00000E+00     0.00
    4.00     0.00     -12.63 -999.99  -12.63    0.00000     0.00  LINEAR    1.89842E-01    70.32    0.00000E+00     0.00
    5.00     0.00     -12.42 -999.99  -12.42    0.00000     0.00  LINEAR    1.94563E-01    67.38    0.00000E+00     0.00
    6.00     0.00     -12.14 -999.99  -12.14    0.00000     0.00  LINEAR    2.00841E-01    64.00    0.00000E+00     0.00
    7.00     0.00     -11.80 -999.99  -11.80    0.00000     0.00  LINEAR    2.08866E-01    60.31    0.00000E+00     0.00
    8.00     0.00     -11.40 -999.99  -11.40    0.00000     0.00  LINEAR    2.18781E-01    56.44    0.00000E+00     0.00
    9.00     0.00     -10.94 -999.99  -10.94    0.00000     0.00  LINEAR    2.30658E-01    52.50    0.00000E+00     0.00
   10.00     0.00     -10.43 -999.99  -10.43    0.00000     0.00  LINEAR    2.44482E-01    48.61    0.00000E+00     0.00
   11.00     0.00      -9.89 -999.99   -9.89    0.00000     0.00  LINEAR    2.60145E-01    44.83    0.00000E+00     0.00
   12.00     0.00      -9.33 -999.99   -9.33    0.00000     0.00  LINEAR    2.77452E-01    41.24    0.00000E+00     0.00
   13.00     0.00      -8.77 -999.99   -8.77    0.00000     0.00  LINEAR    2.96122E-01    37.85    0.00000E+00     0.00
   14.00     0.00      -8.21 -999.99   -8.21    0.00000     0.00  LINEAR    3.15803E-01    34.69    0.00000E+00     0.00
   15.00     0.00      -7.67 -999.99   -7.67    0.00000     0.00  LINEAR    3.36078E-01    31.73    0.00000E+00     0.00
   16.00     0.00      -7.16 -999.99   -7.16    0.00000     0.00  LINEAR    3.56473E-01    28.98    0.00000E+00     0.00
   17.00     0.00      -6.68 -999.99   -6.68    0.00000     0.00  LINEAR    3.76465E-01    26.40    0.00000E+00     0.00
   18.00     0.00      -6.25 -999.99   -6.25    0.00000     0.00  LINEAR    3.95491E-01    23.98    0.00000E+00     0.00
   19.00     0.00      -5.88 -999.99   -5.88    0.00000     0.00  LINEAR    4.12957E-01    21.68    0.00000E+00     0.00
   20.00     0.00      -5.56 -999.99   -5.56    0.00000     0.00  LINEAR    4.28247E-01    19.48    0.00000E+00     0.00
   21.00     0.00      -5.31 -999.99   -5.31    0.00000     0.00  LINEAR    4.40736E-01    17.34    0.00000E+00     0.00
   22.00     0.00      -5.14 -999.99   -5.14    0.00000     0.00  LINEAR    4.49809E-01    15.24    0.00000E+00     0.00
   23.00     0.00      -5.04 -999.99   -5.04    0.00000     0.00  LINEAR    4.54873E-01    13.14    0.00000E+00     0.00
   24.00     0.00      -5.03 -999.99   -5.03    0.00000     0.00  LINEAR    4.55388E-01    11.01    0.00000E+00     0.00
   25.00     0.00      -5.12 -999.99   -5.12    0.00000     0.00  LINEAR    4.50881E-01     8.80    0.00000E+00     0.00
   26.00     0.00      -5.31 -999.99   -5.31    0.00000     0.00  LINEAR    4.40985E-01     6.46    0.00000E+00     0.00
   27.00     0.00      -5.62 -999.99   -5.62    0.00000     0.00  LINEAR    4.25464E-01     3.93    0.00000E+00     0.00
   28.00     0.00      -6.06 -999.99   -6.06    0.00000     0.00  LINEAR    4.04249E-01     1.11    0.00000E+00     0.00
   29.00     0.00      -6.66 -999.99   -6.66    0.00000     0.00  LINEAR    3.77486E-01    -2.12    0.00000E+00     0.00
   30.00     0.00      -7.43 -999.99   -7.43    0.00000     0.00  LINEAR    3.45587E-01    -5.95    0.00000E+00     0.00
   31.00     0.00      -8.39 -999.99   -8.39    0.00000     0.00  LINEAR    3.09311E-01   -10.67    0.00000E+00     0.00
   32.00     0.00      -9.57 -999.99   -9.57    0.00000     0.00  LINEAR    2.69905E-01   -16.74    0.00000E+00     0.00
   33.00     0.00     -10.99 -999.99  -10.99    0.00000     0.00  LINEAR    2.29359E-01   -24.94    0.00000E+00     0.00
   34.00     0.00     -12.58 -999.99  -12.58    0.00000     0.00  LINEAR    1.90922E-01   -36.52    0.00000E+00     0.00
   35.00     0.00     -14.12 -999.99  -14.12    0.00000     0.00  LINEAR    1.59908E-01   -53.07    0.00000E+00     0.00
   36.00     0.00     -15.05 -999.99  -15.05    0.00000     0.00  LINEAR    1.43748E-01   -74.98    0.00000E+00     0.00
   37.00     0.00     -14.81 -999.99  -14.81    0.00000     0.00  LINEAR    1.47729E-01   -98.37    0.00000E+00     0.00
   38.00     0.00     -13.65 -999.99  -13.65    0.00000     0.00  LINEAR    1.68761E-01  -117.73    0.00000E+00     0.00
   39.00     0.00     -12.24 -999.99  -12.24    0.00000     0.00  LINEAR    1.98550E-01  -131.72    0.00000E+00     0.00
   40.00     0.00     -10.96 -999.99  -10.96    0.00000     0.00  LINEAR    2.30031E-01  -141.73    0.00000E+00     0.00
   41.00     0.00      -9.94 -999.99   -9.94    0.00000     0.00  LINEAR    2.58651E-01  -149.27    0.00000E+00     0.00
   42.00     0.00      -9.21 -999.99   -9.21    0.00000     0.00  LINEAR    2.81541E-01  -155.33    0.00000E+00     0.00
   43.00     0.00      -8.75 -999.99   -8.75    0.00000     0.00  LINEAR    2.96874E-01  -160.56    0.00000E+00     0.00
   44.00     0.00      -8.55 -999.99   -8.55    0.00000     0.00  LINEAR    3.03555E-01  -165.37    0.00000E+00     0.00
   45.00     0.00      -8.62 -999.99   -8.62    0.00000     0.00  LINEAR    3.01109E-01  -170.09    0.00000E+00     0.00
   46.00     0.00      -8.96 -999.99   -8.96    0.00000     0.00  LINEAR    2.89653E-01  -175.01    0.00000E+00     0.00
   47.00     0.00      -9.57 -999.99   -9.57    0.00000     0.00  LINEAR    2.69905E-01   179.52    0.00000E+00     0.00
   48.00     0.00     -10.48 -999.99  -10.48    0.00000     0.00  LINEAR    2.43226E-01   173.09    0.00000E+00     0.00
   49.00     0.00     -11.68 -999.99  -11.68    0.00000     0.00  LINEAR    2.11726E-01   165.02    0.00000E+00     0.00
   50.00     0.00     -13.17 -999.99  -13.17    0.00000     0.00  LINEAR    1.78480E-01   154.28    0.00000E+00     0.00
   51.00     0.00     -14.79 -999.99  -14.79    0.00000     0.00  LINEAR    1.47954E-01   139.39    0.00000E+00     0.00
   52.00     0.00     -16.17 -999.99  -16.17    0.00000     0.00  LINEAR    1.26269E-01   119.08    0.00000E+00     0.00
   53.00     0.00     -16.67 -999.99  -16.67    0.00000     0.00  LINEAR    1.19290E-01    95.00    0.00000E+00     0.00
   54.00     0.00     -16.11 -999.99  -16.11    0.00000     0.00  LINEAR    1.27150E-01    72.51    0.00000E+00     0.00
   55.00     0.00     -15.07 -999.99  -15.07    0.00000     0.00  LINEAR    1.43335E-01    55.05    0.00000E+00     0.00
   56.00     0.00     -14.08 -999.99  -14.08    0.00000     0.00  LINEAR    1.60664E-01    42.06    0.00000E+00     0.00
   57.00     0.00     -13.36 -999.99  -13.36    0.00000     0.00  LINEAR    1.74452E-01    31.91    0.00000E+00     0.00
   58.00     0.00     -12.99 -999.99  -12.99    0.00000     0.00  LINEAR    1.82225E-01    23.31    0.00000E+00     0.00
   59.00     0.00     -12.95 -999.99  -12.95    0.00000     0.00  LINEAR    1.83030E-01    15.33    0.00000E+00     0.00
   60.00     0.00     -13.24 -999.99  -13.24    0.00000     0.00  LINEAR    1.77010E-01     7.31    0.00000E+00     0.00
   61.00     0.00     -13.84 -999.99  -13.84    0.00000     0.00  LINEAR    1.65190E-01    -1.39    0.00000E+00     0.00
   62.00     0.00     -14.71 -999.99  -14.71    0.00000     0.00  LINEAR    1.49346E-01   -11.41    0.00000E+00     0.00
   63.00     0.00     -15.79 -999.99  -15.79    0.00000     0.00  LINEAR    1.31886E-01   -23.47    0.00000E+00     0.00
   64.00     0.00     -16.93 -999.99  -16.93    0.00000     0.00  LINEAR    1.15647E-01   -38.20    0.00000E+00     0.00
   65.00     0.00     -17.91 -999.99  -17.91    0.00000     0.00  LINEAR    1.03373E-01   -55.66    0.00000E+00     0.00
   66.00     0.00     -18.49 -999.99  -18.49    0.00000     0.00  LINEAR    9.66378E-02   -74.69    0.00000E+00     0.00
   67.00     0.00     -18.66 -999.99  -18.66    0.00000     0.00  LINEAR    9.48109E-02   -93.26    0.00000E+00     0.00
   68.00     0.00     -18.60 -999.99  -18.60    0.00000     0.00  LINEAR    9.54504E-02  -109.93    0.00000E+00     0.00
   69.00     0.00     -18.56 -999.99  -18.56    0.00000     0.00  LINEAR    9.58989E-02  -124.59    0.00000E+00     0.00
   70.00     0.00     -18.69 -999.99  -18.69    0.00000     0.00  LINEAR    9.44437E-02  -137.99    0.00000E+00     0.00
   71.00     0.00     -19.06 -999.99  -19.06    0.00000     0.00  LINEAR    9.05895E-02  -151.08    0.00000E+00     0.00
   72.00     0.00     -19.62 -999.99  -19.62    0.00000     0.00  LINEAR    8.48967E-02  -164.77    0.00000E+00     0.00
   73.00     0.00     -20.28 -999.99  -20.28    0.00000     0.00  LINEAR    7.86592E-02  -179.72    0.00000E+00     0.00
   74.00     0.00     -20.88 -999.99  -20.88    0.00000     0.00  LINEAR    7.33977E-02   164.00    0.00000E+00     0.00
   75.00     0.00     -21.28 -999.99  -21.28    0.00000     0.00  LINEAR    7.01194E-02   147.17    0.00000E+00     0.00
   76.00     0.00     -21.46 -999.99  -21.46    0.00000     0.00  LINEAR    6.86688E-02   131.19    0.00000E+00     0.00
   77.00     0.00     -21.57 -999.99  -21.57    0.00000     0.00  LINEAR    6.77874E-02   117.15    0.00000E+00     0.00
   78.00     0.00     -21.82 -999.99  -21.82    0.00000     0.00  LINEAR    6.58626E-02   105.30    0.00000E+00     0.00
   79.00     0.00     -22.40 -999.99  -22.40    0.00000     0.00  LINEAR    6.16581E-02    95.22    0.00000E+00     0.00
   80.00     0.00     -23.45 -999.99  -23.45    0.00000     0.00  LINEAR    5.46504E-02    86.19    0.00000E+00     0.00
   81.00     0.00     -25.12 -999.99  -25.12    0.00000     0.00  LINEAR    4.50752E-02    77.17    0.00000E+00     0.00
   82.00     0.00     -27.60 -999.99  -27.60    0.00000     0.00  LINEAR    3.38692E-02    66.42    0.00000E+00     0.00
   83.00     0.00     -31.08 -999.99  -31.08    0.00000     0.00  LINEAR    2.26932E-02    50.02    0.00000E+00     0.00
   84.00     0.00     -35.01 -999.99  -35.01    0.00000     0.00  LINEAR    1.44353E-02    18.64    0.00000E+00     0.00
   85.00     0.00     -35.98 -999.99  -35.98    0.00000     0.00  LINEAR    1.29122E-02   -26.75    0.00000E+00     0.00
   86.00     0.00     -34.40 -999.99  -34.40    0.00000     0.00  LINEAR    1.54762E-02   -55.28    0.00000E+00     0.00
   87.00     0.00     -33.81 -999.99  -33.81    0.00000     0.00  LINEAR    1.65696E-02   -68.43    0.00000E+00     0.00
   88.00     0.00     -35.13 -999.99  -35.13    0.00000     0.00  LINEAR    1.42382E-02   -74.92    0.00000E+00     0.00
   89.00     0.00     -39.70 -999.99  -39.70    0.00000     0.00  LINEAR    8.41600E-03   -78.09    0.00000E+00     0.00
    0.00     1.00     -12.97  -48.13  -12.97    0.00000    -1.00  LINEAR    1.82608E-01    75.93    3.18743E-03  -104.07
    1.00     1.00     -12.94  -48.10  -12.94    0.00000    -1.00  LINEAR    1.83132E-01    75.56    3.19655E-03  -104.45
    2.00     1.00     -12.88  -48.04  -12.87    0.00001    -1.00  LINEAR    1.84539E-01    74.47    3.22107E-03  -105.56
    3.00     1.00     -12.76  -47.92  -12.76    0.00002    -1.00  LEFT      1.86936E-01    72.69    3.26303E-03  -107.37
    4.00     1.00     -12.60  -47.76  -12.60    0.00003    -1.00  LEFT      1.90488E-01    70.28    3.32560E-03  -109.83
    5.00     1.00     -12.38  -47.54  -12.38    0.00006    -1.00  LEFT      1.95399E-01    67.33    3.41278E-03  -112.85
    6.00     1.00     -12.10  -47.24  -12.09    0.00008    -1.00  LEFT      2.01883E-01    63.95    3.52892E-03  -116.33
    7.00     1.00     -11.75  -46.88  -11.75    0.00012    -1.00  LEFT      2.10136E-01    60.25    3.67825E-03  -120.14
    8.00     1.00     -11.34  -46.46  -11.34    0.00016    -1.00  LEFT      2.20308E-01    56.37    3.86427E-03  -124.15
    9.00     1.00     -10.87  -45.96  -10.87    0.00020    -1.01  LEFT      2.32474E-01    52.42    4.08936E-03  -128.23
   10.00     1.00     -10.36  -45.42  -10.36    0.00024    -1.01  LEFT      2.46626E-01    48.51    4.35441E-03  -132.27
   11.00     1.00      -9.81  -44.83   -9.81    0.00028    -1.02  LEFT      2.62659E-01    44.73    4.65866E-03  -136.18
   12.00     1.00      -9.24  -44.22   -9.24    0.00032    -1.02  LEFT      2.80381E-01    41.13    4.99974E-03  -139.90
   13.00     1.00      -8.67  -43.59   -8.67    0.00035    -1.03  LEFT      2.99512E-01    37.73    5.37368E-03  -143.38
   14.00     1.00      -8.10  -42.97   -8.10    0.00037    -1.03  LEFT      3.19700E-01    34.55    5.77508E-03  -146.63
   15.00     1.00      -7.55  -42.35   -7.55    0.00039    -1.04  LEFT      3.40524E-01    31.59    6.19716E-03  -149.64
   16.00     1.00      -7.03  -41.76   -7.03    0.00040    -1.05  LEFT      3.61505E-01    28.83    6.63190E-03  -152.42
   17.00     1.00      -6.55  -41.21   -6.55    0.00040    -1.06  LEFT      3.82112E-01    26.24    7.07004E-03  -155.00
   18.00     1.00      -6.12  -40.69   -6.12    0.00039    -1.07  LEFT      4.01773E-01    23.81    7.50120E-03  -157.39
   19.00     1.00      -5.73  -40.23   -5.73    0.00037    -1.08  LEFT      4.19878E-01    21.50    7.91394E-03  -159.63
   20.00     1.00      -5.41  -39.82   -5.41    0.00034    -1.09  LEFT      4.35799E-01    19.29    8.29583E-03  -161.74
   21.00     1.00      -5.15  -39.47   -5.15    0.00030    -1.10  LEFT      4.48892E-01    17.14    8.63361E-03  -163.74
   22.00     1.00      -4.97  -39.20   -4.97    0.00024    -1.11  LEFT      4.58522E-01    15.03    8.91340E-03  -165.67
   23.00     1.00      -4.87  -39.00   -4.86    0.00016    -1.13  LEFT      4.64076E-01    12.92    9.12097E-03  -167.55
   24.00     1.00      -4.85  -38.88   -4.85    0.00007    -1.14  LEFT      4.64991E-01    10.78    9.24208E-03  -169.41
   25.00     1.00      -4.93  -38.86   -4.93    0.00006    -1.15  RIGHT     4.60773E-01     8.56    9.26293E-03  -171.28
   26.00     1.00      -5.11  -38.95   -5.11    0.00021    -1.16  RIGHT     4.51032E-01     6.21    9.17069E-03  -173.21
   27.00     1.00      -5.42  -39.16   -5.42    0.00040    -1.18  RIGHT     4.35514E-01     3.66    8.95413E-03  -175.23
   28.00     1.00      -5.85  -39.50   -5.85    0.00063    -1.19  RIGHT     4.14135E-01     0.83    8.60440E-03  -177.42
   29.00     1.00      -6.44  -40.01   -6.44    0.00093    -1.20  RIGHT     3.87029E-01    -2.41    8.11591E-03  -179.88
   30.00     1.00      -7.20  -40.71   -7.20    0.00129    -1.21  RIGHT     3.54606E-01    -6.25    7.48753E-03   177.26
   31.00     1.00      -8.16  -41.64   -8.16    0.00174    -1.21  RIGHT     3.17635E-01   -10.98    6.72419E-03   173.74
   32.00     1.00      -9.34  -42.87   -9.33    0.00228    -1.20  RIGHT     2.77385E-01   -17.07    5.83964E-03   169.17
   33.00     1.00     -10.74  -44.46  -10.74    0.00286    -1.17  RIGHT     2.35899E-01   -25.28    4.86214E-03   162.71
   34.00     1.00     -12.33  -46.49  -12.33    0.00325    -1.11  RIGHT     1.96516E-01   -36.86    3.84884E-03   152.70
   35.00     1.00     -13.86  -48.87  -13.86    0.00277    -1.01  RIGHT     1.64717E-01   -53.43    2.92713E-03   135.56
   36.00     1.00     -14.78  -50.64  -14.78    0.00053    -0.92  RIGHT     1.48182E-01   -75.35    2.38741E-03   106.52
   37.00     1.00     -14.54  -49.92  -14.54    0.00258    -0.96  LEFT      1.52398E-01   -98.75    2.59428E-03    72.52
   38.00     1.00     -13.38  -47.48  -13.37    0.00433    -1.10  LEFT      1.74222E-01  -118.12    3.43463E-03    49.18
   39.00     1.00     -11.96  -45.06  -11.95    0.00460    -1.24  LEFT      2.05122E-01  -132.12    4.53546E-03    35.85
   40.00     1.00     -10.67  -43.11  -10.67    0.00419    -1.35  LEFT      2.37814E-01  -142.15    5.67696E-03    27.73
   41.00     1.00      -9.65  -41.62   -9.65    0.00353    -1.43  LEFT      2.67588E-01  -149.70    6.74439E-03    22.24
   42.00     1.00      -8.91  -40.51   -8.90    0.00277    -1.50  LEFT      2.91470E-01  -155.77    7.66288E-03    18.17
   43.00     1.00      -8.44  -39.74   -8.44    0.00194    -1.56  LEFT      3.07552E-01  -161.01    8.37491E-03    14.90
   44.00     1.00      -8.24  -39.27   -8.24    0.00101    -1.61  LEFT      3.14681E-01  -165.83    8.83421E-03    12.10
   45.00     1.00      -8.30  -39.11   -8.30    0.00005    -1.65  RIGHT     3.12350E-01  -170.57    9.00486E-03     9.53
   46.00     1.00      -8.64  -39.25   -8.63    0.00130    -1.69  RIGHT     3.00659E-01  -175.50    8.86245E-03     7.02
   47.00     1.00      -9.24  -39.72   -9.24    0.00279    -1.71  RIGHT     2.80337E-01   179.02    8.39594E-03     4.38
   48.00     1.00     -10.14  -40.57  -10.14    0.00459    -1.70  RIGHT     2.52784E-01   172.57    7.60990E-03     1.35
   49.00     1.00     -11.34  -41.90  -11.34    0.00667    -1.65  RIGHT     2.20179E-01   164.49    6.52742E-03    -2.49
   50.00     1.00     -12.82  -43.88  -12.82    0.00872    -1.52  RIGHT     1.85716E-01   153.74    5.19598E-03    -8.09
   51.00     1.00     -14.44  -46.82  -14.44    0.00946    -1.27  RIGHT     1.54041E-01   138.84    3.70663E-03   -17.99
   52.00     1.00     -15.82  -50.99  -15.81    0.00607    -0.94  RIGHT     1.31540E-01   118.52    2.29349E-03   -41.10
   53.00     1.00     -16.31  -53.03  -16.30    0.00248    -0.82  LEFT      1.24338E-01    94.42    1.81212E-03   -95.39
   54.00     1.00     -15.75  -48.94  -15.74    0.01020    -1.11  LEFT      1.32603E-01    71.93    2.90216E-03  -135.87
   55.00     1.00     -14.70  -45.20  -14.70    0.01295    -1.54  LEFT      1.49560E-01    54.45    4.46670E-03  -151.26
   56.00     1.00     -13.71  -42.65  -13.70    0.01225    -1.92  LEFT      1.67729E-01    41.45    5.98591E-03  -158.65
   57.00     1.00     -12.99  -40.95  -12.98    0.00993    -2.22  LEFT      1.82214E-01    31.29    7.28095E-03  -163.13
   58.00     1.00     -12.60  -39.87  -12.59    0.00674    -2.45  LEFT      1.90427E-01    22.67    8.24562E-03  -166.30
   59.00     1.00     -12.56  -39.30  -12.55    0.00282    -2.63  LEFT      1.91358E-01    14.69    8.80465E-03  -168.84
   60.00     1.00     -12.85  -39.20  -12.84    0.00190    -2.75  RIGHT     1.85149E-01     6.65    8.90822E-03  -171.08
   61.00     1.00     -13.44  -39.57  -13.43    0.00751    -2.79  RIGHT     1.72863E-01    -2.06    8.53332E-03  -173.29
   62.00     1.00     -14.32  -40.48  -14.30    0.01381    -2.70  RIGHT     1.56351E-01   -12.09    7.68611E-03  -175.73
   63.00     1.00     -15.39  -42.07  -15.38    0.01978    -2.40  RIGHT     1.38129E-01   -24.16    6.40439E-03  -178.86
   64.00     1.00     -16.53  -44.64  -16.52    0.02258    -1.84  RIGHT     1.21171E-01   -38.90    4.76210E-03   176.21
   65.00     1.00     -17.50  -48.97  -17.50    0.01776    -1.14  RIGHT     1.08353E-01   -56.37    2.89342E-03   165.32
   66.00     1.00     -18.08  -56.01  -18.08    0.00352    -0.70  RIGHT     1.01331E-01   -75.41    1.28580E-03   120.70
   67.00     1.00     -18.25  -51.77  -18.24    0.01453    -0.87  LEFT      9.94510E-02   -93.99    2.09642E-03    42.41
   68.00     1.00     -18.18  -46.10  -18.18    0.02854    -1.62  LEFT      1.00156E-01  -110.66    4.02691E-03    24.08
   69.00     1.00     -18.14  -42.83  -18.13    0.03500    -2.67  LEFT      1.00660E-01  -125.34    5.86867E-03    17.67
   70.00     1.00     -18.27  -40.82  -18.25    0.03367    -3.81  LEFT      9.91640E-02  -138.75    7.39274E-03    14.28
   71.00     1.00     -18.63  -39.64  -18.60    0.02452    -4.89  LEFT      9.51458E-02  -151.85    8.46977E-03    12.04
   72.00     1.00     -19.19  -39.10  -19.15    0.00718    -5.75  LEFT      8.91921E-02  -165.54    9.01055E-03    10.34
   73.00     1.00     -19.85  -39.15  -19.80    0.01747    -6.11  RIGHT     8.26613E-02   179.50    8.96352E-03     8.88
   74.00     1.00     -20.45  -39.80  -20.40    0.04385    -5.62  RIGHT     7.71517E-02   163.21    8.31752E-03     7.45
   75.00     1.00     -20.85  -41.17  -20.80    0.06089    -4.27  RIGHT     7.37235E-02   146.38    7.10374E-03     5.82
   76.00     1.00     -21.02  -43.56  -21.00    0.05963    -2.58  RIGHT     7.22145E-02   130.39    5.39597E-03     3.49
   77.00     1.00     -21.14  -47.79  -21.13    0.04113    -1.24  RIGHT     7.13025E-02   116.35    3.31250E-03    -1.31
   78.00     1.00     -21.38  -57.45  -21.38    0.01203    -0.58  RIGHT     6.92914E-02   104.48    1.08986E-03   -25.60
   79.00     1.00     -21.96  -53.77  -21.95    0.02311    -0.64  LEFT      6.48795E-02    94.40    1.66481E-03  -149.86
   80.00     1.00     -23.00  -46.25  -22.98    0.06393    -1.45  LEFT      5.75151E-02    85.36    3.95595E-03  -163.08
   81.00     1.00     -24.67  -42.57  -24.60    0.11311    -3.36  LEFT      4.74449E-02    76.34    6.04653E-03  -166.61
   82.00     1.00     -27.15  -40.43  -26.96    0.17238    -7.51  LEFT      3.56545E-02    65.59    7.73720E-03  -168.29
   83.00     1.00     -30.63  -39.22  -30.07    0.21256   -17.04  LEFT      2.38921E-02    49.19    8.89208E-03  -169.28
   84.00     1.00     -34.56  -38.72  -33.15    0.06052   -31.67  LEFT      1.51995E-02    17.80    9.41653E-03  -169.94
   85.00     1.00     -35.53  -38.86  -33.87    0.30792   -31.86  RIGHT     1.35969E-02   -27.59    9.26163E-03  -170.40
   86.00     1.00     -33.95  -39.68  -32.93    0.44416   -15.22  RIGHT     1.62981E-02   -56.12    8.42815E-03  -170.73
   87.00     1.00     -33.36  -41.34  -32.72    0.38802    -5.44  RIGHT     1.74505E-02   -69.28    6.96723E-03  -170.95
   88.00     1.00     -34.68  -44.26  -34.22    0.33014    -1.98  RIGHT     1.49957E-02   -75.77    4.97748E-03  -171.10
   89.00     1.00     -39.24  -49.90  -38.89    0.29287    -0.72  RIGHT     8.86396E-03   -78.94    2.59830E-03  -171.18
    0.00     2.00     -12.97  -42.11  -12.97    0.00000    -2.00  LINEAR    1.82524E-01    75.93    6.37388E-03  -104.07
    1.00     2.00     -12.94  -42.08  -12.93    0.00000    -2.00  LINEAR    1.83210E-01    75.55    6.39779E-03  -104.46
    2.00     2.00     -12.86  -42.00  -12.86    0.00002    -2.00  LEFT      1.84782E-01    74.45    6.45262E-03  -105.58
    3.00     2.00     -12.74  -41.88  -12.74    0.00004    -2.00  LEFT      1.87350E-01    72.66    6.54253E-03  -107.40
    4.00     2.00     -12.57  -41.71  -12.57    0.00007    -2.00  LEFT      1.91082E-01    70.24    6.67399E-03  -109.87
    5.00     2.00     -12.34  -41.48  -12.34    0.00011    -2.00  LEFT      1.96186E-01    67.29    6.85513E-03  -112.90
    6.00     2.00     -12.05  -41.18  -12.05    0.00017    -2.00  LEFT      2.02880E-01    63.89    7.09486E-03  -116.38
    7.00     2.00     -11.70  -40.81  -11.69    0.00024    -2.01  LEFT      2.11366E-01    60.19    7.40181E-03  -120.20
    8.00     2.00     -11.28  -40.37  -11.27    0.00031    -2.01  LEFT      2.21800E-01    56.29    7.78325E-03  -124.22
    9.00     2.00     -10.80  -39.87  -10.80    0.00040    -2.02  LEFT      2.34263E-01    52.34    8.24417E-03  -128.31
   10.00     2.00     -10.28  -39.32  -10.28    0.00048    -2.02  LEFT      2.48752E-01    48.42    8.78656E-03  -132.36
   11.00     2.00      -9.73  -38.73   -9.72    0.00056    -2.03  LEFT      2.65167E-01    44.63    9.40915E-03  -136.28
   12.00     2.00      -9.15  -38.10   -9.15    0.00064    -2.04  LEFT      2.83318E-01    41.02    1.01073E-02  -140.00
   13.00     2.00      -8.57  -37.47   -8.56    0.00070    -2.06  LEFT      3.02930E-01    37.61    1.08733E-02  -143.50
   14.00     2.00      -8.00  -36.84   -7.99    0.00075    -2.07  LEFT      3.23646E-01    34.43    1.16963E-02  -146.76
   15.00     2.00      -7.44  -36.22   -7.43    0.00078    -2.08  LEFT      3.45046E-01    31.46    1.25627E-02  -149.78
   16.00     2.00      -6.91  -35.62   -6.91    0.00080    -2.10  LEFT      3.66643E-01    28.68    1.34564E-02  -152.57
   17.00     2.00      -6.42  -35.05   -6.42    0.00080    -2.12  LEFT      3.87901E-01    26.09    1.43587E-02  -155.15
   18.00     2.00      -5.98  -34.53   -5.97    0.00078    -2.14  LEFT      4.08235E-01    23.65    1.52484E-02  -157.55
   19.00     2.00      -5.59  -34.06   -5.58    0.00074    -2.16  LEFT      4.27025E-01    21.33    1.61022E-02  -159.80
   20.00     2.00      -5.26  -33.64   -5.25    0.00068    -2.18  LEFT      4.43623E-01    19.11    1.68947E-02  -161.92
   21.00     2.00      -4.99  -33.29   -4.99    0.00059    -2.20  LEFT      4.57370E-01    16.95    1.75987E-02  -163.93
   22.00     2.00      -4.80  -33.00   -4.79    0.00048    -2.23  LEFT      4.67609E-01    14.83    1.81857E-02  -165.87
   23.00     2.00      -4.69  -32.79   -4.68    0.00032    -2.25  LEFT      4.73705E-01    12.72    1.86261E-02  -167.76
   24.00     2.00      -4.66  -32.67   -4.66    0.00013    -2.28  LEFT      4.75070E-01    10.56    1.88906E-02  -169.63
   25.00     2.00      -4.73  -32.64   -4.73    0.00011    -2.30  RIGHT     4.71187E-01     8.33    1.89504E-02  -171.51
   26.00     2.00      -4.91  -32.72   -4.90    0.00041    -2.33  RIGHT     4.61642E-01     5.97    1.87785E-02  -173.44
   27.00     2.00      -5.21  -32.92   -5.20    0.00079    -2.35  RIGHT     4.46158E-01     3.42    1.83516E-02  -175.47
   28.00     2.00      -5.64  -33.26   -5.63    0.00126    -2.38  RIGHT     4.24635E-01     0.58    1.76505E-02  -177.68
   29.00     2.00      -6.22  -33.76   -6.21    0.00185    -2.40  RIGHT     3.97195E-01    -2.67    1.66632E-02   179.86
   30.00     2.00      -6.97  -34.45   -6.96    0.00258    -2.41  RIGHT     3.64241E-01    -6.52    1.53866E-02   176.99
   31.00     2.00      -7.92  -35.38   -7.91    0.00348    -2.42  RIGHT     3.26551E-01   -11.26    1.38301E-02   173.46
   32.00     2.00      -9.09  -36.60   -9.08    0.00456    -2.40  RIGHT     2.85420E-01   -17.36    1.20212E-02   168.88
   33.00     2.00     -10.49  -38.18  -10.48    0.00572    -2.34  RIGHT     2.42941E-01   -25.58    1.00176E-02   162.41
   34.00     2.00     -12.07  -40.20  -12.06    0.00650    -2.21  RIGHT     2.02557E-01   -37.17    7.93670E-03   152.39
   35.00     2.00     -13.59  -42.57  -13.59    0.00554    -2.01  RIGHT     1.69925E-01   -53.74    6.04118E-03   135.24
   36.00     2.00     -14.50  -44.34  -14.50    0.00105    -1.85  RIGHT     1.52995E-01   -75.68    4.93142E-03   106.19
   37.00     2.00     -14.25  -43.61  -14.25    0.00516    -1.93  LEFT      1.57480E-01   -99.09    5.36321E-03    72.19
   38.00     2.00     -13.08  -41.16  -13.08    0.00866    -2.20  LEFT      1.80181E-01  -118.47    7.10635E-03    48.83
   39.00     2.00     -11.66  -38.74  -11.65    0.00920    -2.48  LEFT      2.12311E-01  -132.48    9.39168E-03    35.50
   40.00     2.00     -10.37  -36.79  -10.36    0.00837    -2.69  LEFT      2.46347E-01  -142.51    1.17649E-02    27.37
   41.00     2.00      -9.33  -35.28   -9.32    0.00706    -2.86  LEFT      2.77412E-01  -150.07    1.39882E-02    21.86
   42.00     2.00      -8.59  -34.17   -8.57    0.00554    -2.99  LEFT      3.02409E-01  -156.16    1.59058E-02    17.78
   43.00     2.00      -8.11  -33.39   -8.10    0.00387    -3.11  LEFT      3.19343E-01  -161.40    1.73973E-02    14.51
   44.00     2.00      -7.91  -32.92   -7.89    0.00202    -3.21  LEFT      3.26998E-01  -166.24    1.83655E-02    11.69
   45.00     2.00      -7.96  -32.74   -7.95    0.00010    -3.30  RIGHT     3.24822E-01  -170.98    1.87345E-02     9.12
   46.00     2.00      -8.29  -32.88   -8.27    0.00259    -3.37  RIGHT     3.12898E-01  -175.93    1.84521E-02     6.60
   47.00     2.00      -8.89  -33.34   -8.88    0.00557    -3.41  RIGHT     2.91964E-01   178.59    1.74937E-02     3.94
   48.00     2.00      -9.78  -34.19   -9.77    0.00916    -3.41  RIGHT     2.63459E-01   172.13    1.58674E-02     0.91
   49.00     2.00     -10.98  -35.51  -10.96    0.01332    -3.31  RIGHT     2.29641E-01   164.04    1.36200E-02    -2.94
   50.00     2.00     -12.45  -37.49  -12.44    0.01740    -3.05  RIGHT     1.93833E-01   153.28    1.08495E-02    -8.55
   51.00     2.00     -14.07  -40.42  -14.06    0.01890    -2.54  RIGHT     1.60885E-01   138.37    7.74495E-03   -18.46
   52.00     2.00     -15.43  -44.58  -15.43    0.01213    -1.87  RIGHT     1.37476E-01   118.04    4.79545E-03   -41.58
   53.00     2.00     -15.92  -46.62  -15.91    0.00497    -1.65  LEFT      1.30035E-01    93.93    3.79147E-03   -95.88
   54.00     2.00     -15.35  -42.52  -15.34    0.02039    -2.22  LEFT      1.38769E-01    71.43    6.07609E-03  -136.37
   55.00     2.00     -14.30  -38.77  -14.29    0.02584    -3.08  LEFT      1.56614E-01    53.95    9.35761E-03  -151.76
   56.00     2.00     -13.30  -36.23  -13.28    0.02442    -3.84  LEFT      1.75750E-01    40.93    1.25481E-02  -159.16
   57.00     2.00     -12.57  -34.52  -12.55    0.01978    -4.43  LEFT      1.91043E-01    30.77    1.52721E-02  -163.65
   58.00     2.00     -12.19  -33.43  -12.15    0.01341    -4.89  LEFT      1.99772E-01    22.14    1.73058E-02  -166.84
   59.00     2.00     -12.14  -32.86  -12.10    0.00561    -5.25  LEFT      2.00865E-01    14.14    1.84898E-02  -169.38
   60.00     2.00     -12.42  -32.75  -12.38    0.00377    -5.49  RIGHT     1.94457E-01     6.10    1.87178E-02  -171.63
   61.00     2.00     -13.01  -33.12  -12.97    0.01491    -5.58  RIGHT     1.81652E-01    -2.62    1.79398E-02  -173.85
   62.00     2.00     -13.88  -34.02  -13.84    0.02745    -5.39  RIGHT     1.64388E-01   -12.65    1.61673E-02  -176.30
   63.00     2.00     -14.95  -35.60  -14.91    0.03936    -4.80  RIGHT     1.45304E-01   -24.73    1.34782E-02  -179.43
   64.00     2.00     -16.09  -38.17  -16.06    0.04503    -3.69  RIGHT     1.27528E-01   -39.48    1.00270E-02   175.62
   65.00     2.00     -17.05  -42.50  -17.04    0.03548    -2.29  RIGHT     1.14093E-01   -56.96    6.09525E-03   164.73
   66.00     2.00     -17.63  -49.54  -17.63    0.00704    -1.40  RIGHT     1.06749E-01   -76.01    2.70991E-03   120.10
   67.00     2.00     -17.79  -45.29  -17.78    0.02906    -1.75  LEFT      1.04815E-01   -94.59    4.42033E-03    41.80
   68.00     2.00     -17.72  -39.61  -17.70    0.05695    -3.25  LEFT      1.05604E-01  -111.28    8.49446E-03    23.46
   69.00     2.00     -17.68  -36.34  -17.62    0.06957    -5.35  LEFT      1.06179E-01  -125.96    1.23846E-02    17.05
   70.00     2.00     -17.80  -34.33  -17.71    0.06647    -7.61  LEFT      1.04642E-01  -139.38    1.56070E-02    13.65
   71.00     2.00     -18.16  -33.15  -18.02    0.04801    -9.73  LEFT      1.00440E-01  -152.48    1.78875E-02    11.41
   72.00     2.00     -18.72  -32.61  -18.54    0.01394   -11.40  LEFT      9.41887E-02  -166.18    1.90364E-02     9.70
   73.00     2.00     -19.37  -32.65  -19.18    0.03379   -12.10  RIGHT     8.73218E-02   178.86    1.89436E-02     8.23
   74.00     2.00     -19.97  -33.29  -19.77    0.08524   -11.21  RIGHT     8.15279E-02   162.56    1.75840E-02     6.80
   75.00     2.00     -20.36  -34.66  -20.20    0.11979    -8.59  RIGHT     7.79289E-02   145.72    1.50225E-02     5.17
   76.00     2.00     -20.54  -37.05  -20.44    0.11857    -5.20  RIGHT     7.63556E-02   129.73    1.14143E-02     2.83
   77.00     2.00     -20.65  -41.28  -20.61    0.08217    -2.49  RIGHT     7.54114E-02   115.68    7.00890E-03    -1.98
   78.00     2.00     -20.89  -50.94  -20.89    0.02406    -1.16  RIGHT     7.33024E-02   103.81    2.30660E-03   -26.27
   79.00     2.00     -21.46  -47.26  -21.45    0.04622    -1.28  LEFT      6.86508E-02    93.73    3.52424E-03  -150.54
   80.00     2.00     -22.51  -39.74  -22.43    0.12765    -2.94  LEFT      6.08710E-02    84.68    8.37609E-03  -163.76
   81.00     2.00     -24.18  -36.05  -23.91    0.22389    -6.97  LEFT      5.02228E-02    75.66    1.28050E-02  -167.29
   82.00     2.00     -26.66  -33.91  -25.91    0.32652   -16.12  LEFT      3.77484E-02    64.90    1.63882E-02  -168.97
   83.00     2.00     -30.14  -32.70  -28.22    0.33057   -34.54  LEFT      2.52990E-02    48.50    1.88371E-02  -169.97
   84.00     2.00     -34.06  -32.20  -30.02    0.06611   -51.16  LEFT      1.60967E-02    17.11    1.99507E-02  -170.63
   85.00     2.00     -35.03  -32.34  -30.47    0.31736   -55.77  RIGHT     1.44010E-02   -28.28    1.96247E-02  -171.09
   86.00     2.00     -33.45  -33.16  -30.29    0.64108   -47.33  RIGHT     1.72635E-02   -56.82    1.78602E-02  -171.42
   87.00     2.00     -32.86  -34.81  -30.72    0.73683   -20.88  RIGHT     1.84855E-02   -69.97    1.47654E-02  -171.65
   88.00     2.00     -34.18  -37.73  -32.59    0.65677    -6.22  RIGHT     1.58859E-02   -76.47    1.05491E-02  -171.79
   89.00     2.00     -38.74  -43.38  -37.46    0.58553    -1.99  RIGHT     9.39043E-03   -79.64    5.50693E-03  -171.87
    0.00     3.00     -12.98  -38.59  -12.97    0.00000    -3.00  LINEAR    1.82385E-01    75.93    9.55839E-03  -104.07
    1.00     3.00     -12.94  -38.55  -12.93    0.00001    -3.00  LINEAR    1.83233E-01    75.54    9.60276E-03  -104.46
    2.00     3.00     -12.86  -38.47  -12.84    0.00002    -3.00  LEFT      1.84971E-01    74.43    9.69373E-03  -105.59
    3.00     3.00     -12.73  -38.34  -12.72    0.00005    -3.00  LEFT      1.87711E-01    72.63    9.83768E-03  -107.43
    4.00     3.00     -12.55  -38.16  -12.54    0.00010    -3.00  LEFT      1.91624E-01    70.21    1.00445E-02  -109.90
    5.00     3.00     -12.31  -37.92  -12.30    0.00017    -3.00  LEFT      1.96923E-01    67.24    1.03266E-02  -112.94
    6.00     3.00     -12.01  -37.61  -12.00    0.00025    -3.00  LEFT      2.03830E-01    63.84    1.06976E-02  -116.44
    7.00     3.00     -11.65  -37.24  -11.64    0.00035    -3.01  LEFT      2.12554E-01    60.12    1.11708E-02  -120.26
    8.00     3.00     -11.22  -36.79  -11.21    0.00047    -3.01  LEFT      2.23255E-01    56.22    1.17575E-02  -124.29
    9.00     3.00     -10.74  -36.28  -10.73    0.00060    -3.02  LEFT      2.36023E-01    52.26    1.24655E-02  -128.39
   10.00     3.00     -10.21  -35.72  -10.20    0.00072    -3.03  LEFT      2.50858E-01    48.34    1.32982E-02  -132.45
   11.00     3.00      -9.65  -35.12   -9.63    0.00084    -3.05  LEFT      2.67666E-01    44.54    1.42540E-02  -136.37
   12.00     3.00      -9.06  -34.49   -9.05    0.00095    -3.06  LEFT      2.86262E-01    40.91    1.53263E-02  -140.11
   13.00     3.00      -8.47  -33.85   -8.46    0.00105    -3.08  LEFT      3.06371E-01    37.50    1.65036E-02  -143.61
   14.00     3.00      -7.89  -33.20   -7.88    0.00112    -3.10  LEFT      3.27639E-01    34.31    1.77699E-02  -146.88
   15.00     3.00      -7.32  -32.57   -7.31    0.00117    -3.13  LEFT      3.49639E-01    31.33    1.91047E-02  -149.90
   16.00     3.00      -6.79  -31.97   -6.78    0.00120    -3.15  LEFT      3.71884E-01    28.55    2.04836E-02  -152.70
   17.00     3.00      -6.29  -31.40   -6.28    0.00120    -3.18  LEFT      3.93828E-01    25.95    2.18782E-02  -155.29
   18.00     3.00      -5.84  -30.87   -5.83    0.00117    -3.21  LEFT      4.14875E-01    23.50    2.32564E-02  -157.70
   19.00     3.00      -5.44  -30.38   -5.43    0.00111    -3.24  LEFT      4.34393E-01    21.17    2.45825E-02  -159.96
   20.00     3.00      -5.10  -29.96   -5.09    0.00102    -3.27  LEFT      4.51718E-01    18.94    2.58176E-02  -162.08
   21.00     3.00      -4.83  -29.60   -4.81    0.00089    -3.30  LEFT      4.66170E-01    16.78    2.69196E-02  -164.11
   22.00     3.00      -4.63  -29.30   -4.61    0.00071    -3.34  LEFT      4.77070E-01    14.65    2.78445E-02  -166.05
   23.00     3.00      -4.50  -29.09   -4.49    0.00049    -3.38  LEFT      4.83760E-01    12.53    2.85467E-02  -167.95
   24.00     3.00      -4.47  -28.96   -4.46    0.00020    -3.42  LEFT      4.85626E-01    10.37    2.89802E-02  -169.82
   25.00     3.00      -4.53  -28.92   -4.52    0.00017    -3.45  RIGHT     4.82124E-01     8.13    2.91001E-02  -171.71
   26.00     3.00      -4.70  -28.99   -4.69    0.00062    -3.49  RIGHT     4.72816E-01     5.77    2.88643E-02  -173.65
   27.00     3.00      -4.99  -29.18   -4.97    0.00119    -3.53  RIGHT     4.57399E-01     3.21    2.82352E-02  -175.69
   28.00     3.00      -5.41  -29.51   -5.40    0.00189    -3.57  RIGHT     4.35754E-01     0.36    2.71828E-02  -177.90
   29.00     3.00      -5.98  -30.00   -5.97    0.00277    -3.60  RIGHT     4.07986E-01    -2.90    2.56870E-02   179.63
   30.00     3.00      -6.73  -30.69   -6.71    0.00386    -3.62  RIGHT     3.74496E-01    -6.76    2.37418E-02   176.75
   31.00     3.00      -7.67  -31.61   -7.65    0.00522    -3.62  RIGHT     3.36065E-01   -11.50    2.13604E-02   173.22
   32.00     3.00      -8.83  -32.81   -8.81    0.00683    -3.60  RIGHT     2.94013E-01   -17.60    1.85842E-02   168.63
   33.00     3.00     -10.22  -34.39  -10.20    0.00857    -3.51  RIGHT     2.50492E-01   -25.83    1.55014E-02   162.16
   34.00     3.00     -11.79  -36.40  -11.78    0.00973    -3.32  RIGHT     2.09048E-01   -37.43    1.22928E-02   152.13
   35.00     3.00     -13.31  -38.77  -13.30    0.00831    -3.02  RIGHT     1.75534E-01   -54.01    9.36565E-03   134.97
   36.00     3.00     -14.21  -40.52  -14.20    0.00157    -2.77  RIGHT     1.58192E-01   -75.95    7.65228E-03   105.92
   37.00     3.00     -13.95  -39.78  -13.94    0.00773    -2.89  LEFT      1.62979E-01   -99.36    8.32995E-03    71.91
   38.00     3.00     -12.78  -37.33  -12.76    0.01297    -3.31  LEFT      1.86642E-01  -118.75    1.10474E-02    48.55
   39.00     3.00     -11.34  -34.90  -11.32    0.01377    -3.72  LEFT      2.20123E-01  -132.77    1.46133E-02    35.21
   40.00     3.00     -10.04  -32.94  -10.02    0.01253    -4.04  LEFT      2.55641E-01  -142.81    1.83224E-02    27.07
   41.00     3.00      -9.01  -31.43   -8.98    0.01056    -4.29  LEFT      2.88133E-01  -150.37    2.18043E-02    21.57
   42.00     3.00      -8.25  -30.30   -8.22    0.00829    -4.49  LEFT      3.14372E-01  -156.46    2.48151E-02    17.48
   43.00     3.00      -7.77  -29.52   -7.74    0.00579    -4.66  LEFT      3.32264E-01  -161.71    2.71656E-02    14.20
   44.00     3.00      -7.55  -29.04   -7.52    0.00302    -4.81  LEFT      3.40520E-01  -166.55    2.87021E-02    11.38
   45.00     3.00      -7.60  -28.86   -7.57    0.00014    -4.95  RIGHT     3.38541E-01  -171.30    2.93036E-02     8.80
   46.00     3.00      -7.92  -28.98   -7.89    0.00387    -5.05  RIGHT     3.26387E-01  -176.25    2.88859E-02     6.27
   47.00     3.00      -8.52  -29.44   -8.48    0.00832    -5.12  RIGHT     3.04802E-01   178.26    2.74082E-02     3.61
   48.00     3.00      -9.40  -30.28   -9.37    0.01369    -5.11  RIGHT     2.75267E-01   171.79    2.48805E-02     0.57
   49.00     3.00     -10.59  -31.60  -10.55    0.01990    -4.96  RIGHT     2.40126E-01   163.70    2.13737E-02    -3.28
   50.00     3.00     -12.05  -33.57  -12.02    0.02602    -4.57  RIGHT     2.02844E-01   152.94    1.70394E-02    -8.90
   51.00     3.00     -13.67  -36.49  -13.64    0.02830    -3.80  RIGHT     1.68494E-01   138.02    1.21731E-02   -18.81
   52.00     3.00     -15.02  -40.65  -15.01    0.01819    -2.81  RIGHT     1.44089E-01   117.68    7.54298E-03   -41.94
   53.00     3.00     -15.50  -42.68  -15.49    0.00744    -2.47  LEFT      1.36392E-01    93.57    5.96825E-03   -96.24
   54.00     3.00     -14.93  -38.58  -14.91    0.03054    -3.33  LEFT      1.45660E-01    71.07    9.57157E-03  -136.73
   55.00     3.00     -13.87  -34.82  -13.84    0.03865    -4.63  LEFT      1.64510E-01    53.58    1.47515E-02  -152.13
   56.00     3.00     -12.87  -32.27  -12.82    0.03645    -5.75  LEFT      1.84740E-01    40.56    1.97951E-02  -159.54
   57.00     3.00     -12.14  -30.55  -12.07    0.02947    -6.63  LEFT      2.00954E-01    30.39    2.41089E-02  -164.03
   58.00     3.00     -11.74  -29.46  -11.67    0.01995    -7.32  LEFT      2.10278E-01    21.76    2.73378E-02  -167.22
   59.00     3.00     -11.69  -28.88  -11.61    0.00833    -7.85  LEFT      2.11568E-01    13.76    2.92273E-02  -169.77
   60.00     3.00     -11.96  -28.77  -11.87    0.00560    -8.21  RIGHT     2.04949E-01     5.71    2.96067E-02  -172.02
   61.00     3.00     -12.55  -29.13  -12.46    0.02212    -8.34  RIGHT     1.91574E-01    -3.01    2.83939E-02  -174.24
   62.00     3.00     -13.41  -30.03  -13.32    0.04075    -8.07  RIGHT     1.73471E-01   -13.05    2.56040E-02  -176.69
   63.00     3.00     -14.48  -31.61  -14.40    0.05856    -7.20  RIGHT     1.53424E-01   -25.13    2.13579E-02  -179.84
   64.00     3.00     -15.61  -34.17  -15.55    0.06723    -5.54  RIGHT     1.34732E-01   -39.89    1.58981E-02   175.22
   65.00     3.00     -16.57  -38.49  -16.54    0.05314    -3.44  RIGHT     1.20604E-01   -57.37    9.66957E-03   164.32
   66.00     3.00     -17.14  -45.53  -17.14    0.01056    -2.10  RIGHT     1.12901E-01   -76.42    4.30132E-03   119.69
   67.00     3.00     -17.30  -41.27  -17.28    0.04356    -2.63  LEFT      1.10913E-01   -95.01    7.01982E-03    41.39
   68.00     3.00     -17.23  -35.59  -17.17    0.08513    -4.89  LEFT      1.11803E-01  -111.70    1.34965E-02    23.04
   69.00     3.00     -17.18  -32.31  -17.05    0.10328    -8.05  LEFT      1.12466E-01  -126.38    1.96869E-02    16.63
   70.00     3.00     -17.30  -30.30  -17.09    0.09761   -11.39  LEFT      1.10889E-01  -139.80    2.48206E-02    13.22
   71.00     3.00     -17.65  -29.11  -17.35    0.06956   -14.47  LEFT      1.06482E-01  -152.91    2.84598E-02    10.98
   72.00     3.00     -18.21  -28.57  -17.82    0.01994   -16.84  LEFT      9.98962E-02  -166.61    3.03004E-02     9.27
   73.00     3.00     -18.86  -28.61  -18.42    0.04807   -17.85  RIGHT     9.26497E-02   178.43    3.01644E-02     7.80
   74.00     3.00     -19.45  -29.25  -19.02    0.12211   -16.70  RIGHT     8.65347E-02   162.12    2.80100E-02     6.37
   75.00     3.00     -19.84  -30.62  -19.49    0.17481   -13.00  RIGHT     8.27438E-02   145.28    2.39381E-02     4.73
   76.00     3.00     -20.02  -33.00  -19.80    0.17611    -7.92  RIGHT     8.11000E-02   129.29    1.81945E-02     2.39
   77.00     3.00     -20.12  -37.23  -20.04    0.12302    -3.76  RIGHT     8.01219E-02   115.24    1.11757E-02    -2.42
   78.00     3.00     -20.37  -46.88  -20.36    0.03610    -1.74  RIGHT     7.79036E-02   103.37    3.67894E-03   -26.72
   79.00     3.00     -20.93  -43.20  -20.91    0.06932    -1.93  LEFT      7.29793E-02    93.28    5.62253E-03  -150.98
   80.00     3.00     -21.98  -35.68  -21.79    0.19093    -4.50  LEFT      6.47246E-02    84.24    1.33663E-02  -164.21
   81.00     3.00     -23.64  -31.99  -23.05    0.32953   -11.09  LEFT      5.34140E-02    75.21    2.04384E-02  -167.74
   82.00     3.00     -26.12  -29.84  -24.59    0.44144   -26.58  LEFT      4.01550E-02    64.45    2.61627E-02  -169.42
   83.00     3.00     -29.60  -28.63  -26.08    0.34621   -49.04  LEFT      2.69166E-02    48.05    3.00776E-02  -170.42
   84.00     3.00     -33.52  -28.13  -27.03    0.05635   -61.86  LEFT      1.71284E-02    16.66    3.18605E-02  -171.08
   85.00     3.00     -34.49  -28.27  -27.34    0.25392   -67.16  RIGHT     1.53261E-02   -28.74    3.13438E-02  -171.55
   86.00     3.00     -32.91  -29.09  -27.58    0.53030   -68.75  RIGHT     1.83743E-02   -57.27    2.85287E-02  -171.87
   87.00     3.00     -32.32  -30.74  -28.45    0.75989   -66.01  RIGHT     1.96766E-02   -70.43    2.35872E-02  -172.10
   88.00     3.00     -33.63  -33.66  -30.64    0.91101   -43.95  RIGHT     1.69105E-02   -76.92    1.68528E-02  -172.25
   89.00     3.00     -38.20  -39.31  -35.71    0.87496    -8.47  RIGHT     9.99641E-03   -80.09    8.79793E-03  -172.33
    0.00     4.00     -12.99  -36.09  -12.97    0.00000    -4.00  LINEAR    1.82190E-01    75.93    1.27400E-02  -104.07
    1.00     4.00     -12.94  -36.05  -12.92    0.00001    -4.00  LINEAR    1.83200E-01    75.53    1.28105E-02  -104.47
    2.00     4.00     -12.85  -35.96  -12.83    0.00003    -4.00  LEFT      1.85104E-01    74.41    1.29435E-02  -105.61
    3.00     4.00     -12.71  -35.82  -12.69    0.00007    -4.00  LEFT      1.88017E-01    72.61    1.31477E-02  -107.45
    4.00     4.00     -12.53  -35.63  -12.50    0.00014    -4.00  LEFT      1.92114E-01    70.17    1.34364E-02  -109.94
    5.00     4.00     -12.28  -35.38  -12.26    0.00022    -4.00  LEFT      1.97610E-01    67.20    1.38266E-02  -112.99
    6.00     4.00     -11.97  -35.07  -11.95    0.00034    -4.01  LEFT      2.04734E-01    63.79    1.43369E-02  -116.49
    7.00     4.00     -11.60  -34.68  -11.58    0.00047    -4.01  LEFT      2.13699E-01    60.06    1.49853E-02  -120.33
    8.00     4.00     -11.17  -34.23  -11.14    0.00063    -4.02  LEFT      2.24673E-01    56.15    1.57874E-02  -124.36
    9.00     4.00     -10.67  -33.71  -10.65    0.00079    -4.03  LEFT      2.37751E-01    52.18    1.67543E-02  -128.47
   10.00     4.00     -10.14  -33.14  -10.12    0.00096    -4.05  LEFT      2.52941E-01    48.25    1.78909E-02  -132.53
   11.00     4.00      -9.56  -32.53   -9.54    0.00112    -4.06  LEFT      2.70155E-01    44.45    1.91957E-02  -136.46
   12.00     4.00      -8.97  -31.89   -8.95    0.00127    -4.09  LEFT      2.89209E-01    40.82    2.06602E-02  -140.21
   13.00     4.00      -8.37  -31.24   -8.35    0.00139    -4.11  LEFT      3.09833E-01    37.40    2.22694E-02  -143.72
   14.00     4.00      -7.78  -30.59   -7.76    0.00149    -4.14  LEFT      3.31673E-01    34.20    2.40020E-02  -146.99
   15.00     4.00      -7.21  -29.95   -7.19    0.00156    -4.17  LEFT      3.54301E-01    31.21    2.58309E-02  -150.02
   16.00     4.00      -6.67  -29.34   -6.64    0.00159    -4.20  LEFT      3.77223E-01    28.42    2.77233E-02  -152.83
   17.00     4.00      -6.16  -28.76   -6.13    0.00160    -4.24  LEFT      3.99887E-01    25.82    2.96409E-02  -155.42
   18.00     4.00      -5.70  -28.22   -5.67    0.00156    -4.28  LEFT      4.21689E-01    23.36    3.15402E-02  -157.84
   19.00     4.00      -5.29  -27.73   -5.26    0.00148    -4.32  LEFT      4.41979E-01    21.03    3.33728E-02  -160.10
   20.00     4.00      -4.94  -27.29   -4.92    0.00136    -4.36  LEFT      4.60077E-01    18.80    3.50854E-02  -162.23
   21.00     4.00      -4.66  -26.92   -4.63    0.00118    -4.41  LEFT      4.75284E-01    16.63    3.66206E-02  -164.26
   22.00     4.00      -4.45  -26.62   -4.42    0.00095    -4.45  LEFT      4.86898E-01    14.50    3.79178E-02  -166.21
   23.00     4.00      -4.32  -26.40   -4.29    0.00065    -4.50  LEFT      4.94234E-01    12.37    3.89141E-02  -168.11
   24.00     4.00      -4.28  -26.26   -4.25    0.00026    -4.55  LEFT      4.96651E-01    10.20    3.95457E-02  -169.99
   25.00     4.00      -4.33  -26.21   -4.30    0.00022    -4.60  RIGHT     4.93578E-01     7.96    3.97503E-02  -171.88
   26.00     4.00      -4.49  -26.27   -4.46    0.00083    -4.66  RIGHT     4.84547E-01     5.60    3.94687E-02  -173.82
   27.00     4.00      -4.77  -26.45   -4.74    0.00158    -4.71  RIGHT     4.69230E-01     3.03    3.86482E-02  -175.86
   28.00     4.00      -5.18  -26.78   -5.15    0.00252    -4.76  RIGHT     4.47484E-01     0.18    3.72459E-02  -178.08
   29.00     4.00      -5.74  -27.26   -5.71    0.00368    -4.80  RIGHT     4.19398E-01    -3.08    3.52324E-02   179.45
   30.00     4.00      -6.48  -27.93   -6.45    0.00514    -4.83  RIGHT     3.85364E-01    -6.94    3.25976E-02   176.57
   31.00     4.00      -7.41  -28.84   -7.38    0.00694    -4.83  RIGHT     3.46169E-01   -11.69    2.93577E-02   173.04
   32.00     4.00      -8.56  -30.04   -8.53    0.00909    -4.79  RIGHT     3.03161E-01   -17.79    2.55681E-02   168.44
   33.00     4.00      -9.95  -31.61   -9.92    0.01140    -4.68  RIGHT     2.58546E-01   -26.02    2.13483E-02   161.97
   34.00     4.00     -11.51  -33.62  -11.48    0.01295    -4.42  RIGHT     2.15987E-01   -37.62    1.69465E-02   151.94
   35.00     4.00     -13.02  -35.97  -13.00    0.01106    -4.02  RIGHT     1.81541E-01   -54.20    1.29241E-02   134.78
   36.00     4.00     -13.91  -37.72  -13.89    0.00210    -3.69  RIGHT     1.63768E-01   -76.14    1.05702E-02   105.73
   37.00     4.00     -13.65  -36.97  -13.62    0.01030    -3.86  LEFT      1.68890E-01   -99.56    1.15176E-02    71.71
   38.00     4.00     -12.46  -34.51  -12.43    0.01726    -4.41  LEFT      1.93601E-01  -118.95    1.52899E-02    48.35
   39.00     4.00     -11.02  -32.07  -10.98    0.01832    -4.95  LEFT      2.28552E-01  -132.97    2.02449E-02    35.01
   40.00     4.00      -9.71  -30.10   -9.67    0.01666    -5.38  LEFT      2.65686E-01  -143.01    2.54079E-02    26.87
   41.00     4.00      -8.66  -28.58   -8.62    0.01403    -5.71  LEFT      2.99740E-01  -150.57    3.02651E-02    21.37
   42.00     4.00      -7.90  -27.45   -7.85    0.01100    -5.98  LEFT      3.27345E-01  -156.66    3.44767E-02    17.28
   43.00     4.00      -7.41  -26.65   -7.36    0.00769    -6.21  LEFT      3.46299E-01  -161.91    3.77778E-02    14.00
   44.00     4.00      -7.19  -26.17   -7.13    0.00401    -6.41  LEFT      3.55233E-01  -166.75    3.99514E-02    11.18
   45.00     4.00      -7.23  -25.98   -7.17    0.00019    -6.59  RIGHT     3.53491E-01  -171.50    4.08259E-02     8.60
   46.00     4.00      -7.54  -26.10   -7.48    0.00513    -6.73  RIGHT     3.41108E-01  -176.45    4.02803E-02     6.07
   47.00     4.00      -8.13  -26.54   -8.06    0.01104    -6.81  RIGHT     3.18833E-01   178.06    3.82538E-02     3.41
   48.00     4.00      -9.00  -27.38   -8.94    0.01815    -6.80  RIGHT     2.88192E-01   171.60    3.47563E-02     0.37
   49.00     4.00     -10.18  -28.69  -10.12    0.02640    -6.61  RIGHT     2.51618E-01   163.50    2.98834E-02    -3.48
   50.00     4.00     -11.64  -30.65  -11.59    0.03455    -6.09  RIGHT     2.12732E-01   152.74    2.38437E-02    -9.09
   51.00     4.00     -13.24  -33.56  -13.20    0.03763    -5.07  RIGHT     1.76857E-01   137.82    1.70485E-02   -19.01
   52.00     4.00     -14.60  -37.71  -14.58    0.02422    -3.75  RIGHT     1.51364E-01   117.49    1.05727E-02   -42.13
   53.00     4.00     -15.07  -39.74  -15.05    0.00992    -3.29  LEFT      1.43395E-01    93.38    8.37221E-03   -96.43
   54.00     4.00     -14.49  -35.63  -14.46    0.04064    -4.44  LEFT      1.53260E-01    70.87    1.34376E-02  -136.92
   55.00     4.00     -13.42  -31.87  -13.36    0.05130    -6.17  LEFT      1.73229E-01    53.39    2.07259E-02  -152.32
   56.00     4.00     -12.41  -29.31  -12.32    0.04826    -7.66  LEFT      1.94679E-01    40.37    2.78332E-02  -159.73
   57.00     4.00     -11.67  -27.59  -11.56    0.03892    -8.83  LEFT      2.11924E-01    30.20    3.39241E-02  -164.22
   58.00     4.00     -11.27  -26.49  -11.14    0.02628    -9.73  LEFT      2.21918E-01    21.57    3.84955E-02  -167.40
   59.00     4.00     -11.21  -25.90  -11.07    0.01096   -10.43  LEFT      2.23438E-01    13.57    4.11854E-02  -169.95
   60.00     4.00     -11.48  -25.78  -11.33    0.00735   -10.90  RIGHT     2.16598E-01     5.53    4.17490E-02  -172.21
   61.00     4.00     -12.06  -26.14  -11.90    0.02903   -11.07  RIGHT     2.02599E-01    -3.19    4.00658E-02  -174.42
   62.00     4.00     -12.92  -27.03  -12.76    0.05355   -10.73  RIGHT     1.83575E-01   -13.23    3.61528E-02  -176.87
   63.00     4.00     -13.98  -28.60  -13.83    0.07718    -9.59  RIGHT     1.62463E-01   -25.31    3.01765E-02   179.99
   64.00     4.00     -15.11  -31.16  -15.00    0.08906    -7.40  RIGHT     1.42758E-01   -40.07    2.24762E-02   175.04
   65.00     4.00     -16.06  -35.48  -16.01    0.07071    -4.59  RIGHT     1.27865E-01   -57.55    1.36787E-02   164.15
   66.00     4.00     -16.63  -42.51  -16.62    0.01408    -2.80  RIGHT     1.19767E-01   -76.60    6.08822E-03   119.52
   67.00     4.00     -16.78  -38.25  -16.75    0.05802    -3.51  LEFT      1.17724E-01   -95.18    9.94158E-03    41.22
   68.00     4.00     -16.71  -32.57  -16.59    0.11294    -6.55  LEFT      1.18732E-01  -111.87    1.91243E-02    22.88
   69.00     4.00     -16.65  -29.28  -16.42    0.13571   -10.77  LEFT      1.19497E-01  -126.55    2.79101E-02    16.46
   70.00     4.00     -16.77  -27.26  -16.40    0.12636   -15.15  LEFT      1.17879E-01  -139.97    3.52056E-02    13.06
   71.00     4.00     -17.12  -26.07  -16.60    0.08849   -19.07  LEFT      1.13248E-01  -153.07    4.03864E-02    10.82
   72.00     4.00     -17.67  -25.52  -17.01    0.02498   -22.00  LEFT      1.06292E-01  -166.78    4.30176E-02     9.11
   73.00     4.00     -18.32  -25.56  -17.57    0.05975   -23.29  RIGHT     9.86234E-02   178.26    4.28429E-02     7.64
   74.00     4.00     -18.91  -26.20  -18.16    0.15297   -22.04  RIGHT     9.21511E-02   161.96    3.97989E-02     6.21
   75.00     4.00     -19.29  -27.56  -18.69    0.22419   -17.51  RIGHT     8.81477E-02   145.12    3.40262E-02     4.57
   76.00     4.00     -19.46  -29.94  -19.09    0.23146   -10.77  RIGHT     8.64274E-02   129.13    2.58714E-02     2.23
   77.00     4.00     -19.57  -34.17  -19.42    0.16359    -5.07  RIGHT     8.54135E-02   115.08    1.58964E-02    -2.58
   78.00     4.00     -19.81  -43.82  -19.79    0.04813    -2.33  RIGHT     8.30743E-02   103.21    5.23456E-03   -26.87
   79.00     4.00     -20.37  -40.13  -20.33    0.09242    -2.58  LEFT      7.78454E-02    93.13    8.00227E-03  -151.14
   80.00     4.00     -21.41  -32.61  -21.10    0.25350    -6.18  LEFT      6.90584E-02    84.08    1.90286E-02  -164.36
   81.00     4.00     -23.08  -28.92  -22.07    0.42618   -16.07  LEFT      5.70039E-02    75.05    2.91034E-02  -167.89
   82.00     4.00     -25.56  -26.77  -23.11    0.49989   -38.30  LEFT      4.28628E-02    64.30    3.72625E-02  -169.57
   83.00     4.00     -29.03  -25.56  -23.95    0.31666   -58.82  LEFT      2.87371E-02    47.90    4.28464E-02  -170.57
   84.00     4.00     -32.95  -25.06  -24.40    0.04679   -68.19  LEFT      1.82899E-02    16.51    4.53935E-02  -171.23
   85.00     4.00     -33.92  -25.20  -24.65    0.20337   -73.00  RIGHT     1.63676E-02   -28.89    4.46637E-02  -171.70
   86.00     4.00     -32.34  -26.01  -25.10    0.41820   -76.17  RIGHT     1.96252E-02   -57.42    4.06567E-02  -172.02
   87.00     4.00     -31.75  -27.67  -26.23    0.59722   -78.72  RIGHT     2.10180E-02   -70.58    3.36175E-02  -172.25
   88.00     4.00     -33.06  -30.59  -28.64    0.74067   -81.09  RIGHT     1.80644E-02   -77.07    2.40209E-02  -172.40
   89.00     4.00     -37.63  -36.23  -33.86    0.84756   -83.20  RIGHT     1.06790E-02   -80.24    1.25405E-02  -172.48
    0.00     5.00     -13.00  -34.16  -12.97    0.00000    -5.00  LINEAR    1.81940E-01    75.93    1.59177E-02  -104.07
    1.00     5.00     -12.94  -34.10  -12.91    0.00001    -5.00  LINEAR    1.83111E-01    75.52    1.60200E-02  -104.48
    2.00     5.00     -12.85  -34.01  -12.81    0.00004    -5.00  LEFT      1.85182E-01    74.39    1.62010E-02  -105.63
    3.00     5.00     -12.70  -33.86  -12.67    0.00009    -5.00  LEFT      1.88268E-01    72.58    1.64716E-02  -107.48
    4.00     5.00     -12.51  -33.67  -12.47    0.00017    -5.00  LEFT      1.92550E-01    70.14    1.68491E-02  -109.97
    5.00     5.00     -12.25  -33.41  -12.22    0.00028    -5.00  LEFT      1.98245E-01    67.15    1.73548E-02  -113.03
    6.00     5.00     -11.94  -33.09  -11.90    0.00042    -5.01  LEFT      2.05588E-01    63.74    1.80124E-02  -116.54
    7.00     5.00     -11.56  -32.69  -11.52    0.00059    -5.01  LEFT      2.14799E-01    60.00    1.88453E-02  -120.38
    8.00     5.00     -11.11  -32.23  -11.08    0.00078    -5.02  LEFT      2.26051E-01    56.09    1.98735E-02  -124.43
    9.00     5.00     -10.61  -31.71  -10.58    0.00099    -5.04  LEFT      2.39447E-01    52.11    2.11115E-02  -128.54
   10.00     5.00     -10.07  -31.13  -10.03    0.00120    -5.06  LEFT      2.55000E-01    48.17    2.25663E-02  -132.61
   11.00     5.00      -9.49  -30.51   -9.45    0.00140    -5.08  LEFT      2.72629E-01    44.36    2.42365E-02  -136.55
   12.00     5.00      -8.88  -29.86   -8.85    0.00158    -5.11  LEFT      2.92156E-01    40.72    2.61122E-02  -140.30
   13.00     5.00      -8.28  -29.20   -8.24    0.00174    -5.14  LEFT      3.13312E-01    37.30    2.81751E-02  -143.82
   14.00     5.00      -7.68  -28.54   -7.64    0.00186    -5.17  LEFT      3.35745E-01    34.09    3.03987E-02  -147.09
   15.00     5.00      -7.09  -27.89   -7.06    0.00194    -5.21  LEFT      3.59025E-01    31.10    3.27491E-02  -150.13
   16.00     5.00      -6.54  -27.27   -6.50    0.00199    -5.25  LEFT      3.82655E-01    28.31    3.51853E-02  -152.94
   17.00     5.00      -6.03  -26.68   -5.99    0.00199    -5.30  LEFT      4.06074E-01    25.70    3.76588E-02  -155.54
   18.00     5.00      -5.55  -26.13   -5.52    0.00195    -5.34  LEFT      4.28667E-01    23.24    4.01145E-02  -157.96
   19.00     5.00      -5.14  -25.63   -5.10    0.00185    -5.40  LEFT      4.49772E-01    20.91    4.24905E-02  -160.22
   20.00     5.00      -4.78  -25.19   -4.74    0.00170    -5.45  LEFT      4.68691E-01    18.67    4.47188E-02  -162.36
   21.00     5.00      -4.49  -24.81   -4.45    0.00148    -5.51  LEFT      4.84702E-01    16.50    4.67257E-02  -164.39
   22.00     5.00      -4.27  -24.49   -4.23    0.00119    -5.56  LEFT      4.97081E-01    14.37    4.84330E-02  -166.34
   23.00     5.00      -4.13  -24.26   -4.09    0.00081    -5.63  LEFT      5.05115E-01    12.24    4.97591E-02  -168.24
   24.00     5.00      -4.08  -24.11   -4.03    0.00033    -5.69  LEFT      5.08133E-01    10.07    5.06213E-02  -170.12
   25.00     5.00      -4.12  -24.06   -4.08    0.00028    -5.75  RIGHT     5.05534E-01     7.83    5.09381E-02  -172.01
   26.00     5.00      -4.27  -24.11   -4.23    0.00103    -5.82  RIGHT     4.96820E-01     5.46    5.06319E-02  -173.95
   27.00     5.00      -4.54  -24.28   -4.50    0.00197    -5.88  RIGHT     4.81635E-01     2.90    4.96329E-02  -176.00
   28.00     5.00      -4.95  -24.59   -4.90    0.00314    -5.94  RIGHT     4.59808E-01     0.05    4.78835E-02  -178.21
   29.00     5.00      -5.50  -25.07   -5.45    0.00459    -5.99  RIGHT     4.31412E-01    -3.21    4.53436E-02   179.32
   30.00     5.00      -6.23  -25.73   -6.18    0.00641    -6.03  RIGHT     3.96829E-01    -7.07    4.19977E-02   176.44
   31.00     5.00      -7.15  -26.63   -7.10    0.00865    -6.04  RIGHT     3.56849E-01   -11.82    3.78640E-02   172.91
   32.00     5.00      -8.29  -27.82   -8.24    0.01133    -5.99  RIGHT     3.12847E-01   -17.92    3.30115E-02   168.32
   33.00     5.00      -9.66  -29.38   -9.62    0.01421    -5.84  RIGHT     2.67090E-01   -26.14    2.75924E-02   161.85
   34.00     5.00     -11.22  -31.38  -11.18    0.01615    -5.53  RIGHT     2.23359E-01   -37.74    2.19263E-02   151.82
   35.00     5.00     -12.72  -33.72  -12.68    0.01380    -5.03  RIGHT     1.87935E-01   -54.32    1.67394E-02   134.66
   36.00     5.00     -13.60  -35.46  -13.57    0.00262    -4.61  RIGHT     1.69712E-01   -76.25    1.37049E-02   105.62
   37.00     5.00     -13.33  -34.71  -13.29    0.01285    -4.82  LEFT      1.75201E-01   -99.67    1.49487E-02    71.61
   38.00     5.00     -12.13  -32.24  -12.09    0.02152    -5.51  LEFT      2.01041E-01  -119.05    1.98652E-02    48.25
   39.00     5.00     -10.68  -29.79  -10.63    0.02282    -6.19  LEFT      2.37578E-01  -133.06    2.63296E-02    34.91
   40.00     5.00      -9.36  -27.81   -9.30    0.02074    -6.72  LEFT      2.76456E-01  -143.10    3.30776E-02    26.78
   41.00     5.00      -8.31  -26.28   -8.24    0.01745    -7.13  LEFT      3.12202E-01  -150.66    3.94405E-02    21.28
   42.00     5.00      -7.53  -25.14   -7.46    0.01368    -7.47  LEFT      3.41292E-01  -156.74    4.49733E-02    17.20
   43.00     5.00      -7.04  -24.34   -6.96    0.00956    -7.75  LEFT      3.61407E-01  -161.99    4.93275E-02    13.92
   44.00     5.00      -6.81  -23.84   -6.72    0.00498    -8.00  LEFT      3.71088E-01  -166.82    5.22161E-02    11.11
   45.00     5.00      -6.84  -23.64   -6.75    0.00024    -8.22  RIGHT     3.69621E-01  -171.56    5.34099E-02     8.54
   46.00     5.00      -7.14  -23.75   -7.05    0.00636    -8.40  RIGHT     3.57008E-01  -176.51    5.27458E-02     6.02
   47.00     5.00      -7.72  -24.19   -7.63    0.01370    -8.50  RIGHT     3.34005E-01   178.01    5.01386E-02     3.37
   48.00     5.00      -8.59  -25.02   -8.49    0.02253    -8.49  RIGHT     3.02182E-01   171.56    4.55961E-02     0.34
   49.00     5.00      -9.76  -26.32   -9.67    0.03278    -8.25  RIGHT     2.64070E-01   163.47    3.92388E-02    -3.51
   50.00     5.00     -11.21  -28.28  -11.13    0.04296    -7.60  RIGHT     2.23458E-01   152.72    3.13360E-02    -9.12
   51.00     5.00     -12.81  -31.18  -12.75    0.04687    -6.34  RIGHT     1.85935E-01   137.81    2.24250E-02   -19.03
   52.00     5.00     -14.15  -35.33  -14.12    0.03023    -4.69  RIGHT     1.59270E-01   117.48    1.39189E-02   -42.14
   53.00     5.00     -14.62  -37.34  -14.59    0.01239    -4.12  LEFT      1.51011E-01    93.38    1.10312E-02   -96.43
   54.00     5.00     -14.03  -33.23  -13.98    0.05067    -5.56  LEFT      1.61533E-01    70.88    1.77199E-02  -136.91
   55.00     5.00     -12.96  -29.46  -12.86    0.06377    -7.71  LEFT      1.82726E-01    53.40    2.73528E-02  -152.31
   56.00     5.00     -11.94  -26.89  -11.80    0.05978    -9.57  LEFT      2.05514E-01    40.39    3.67616E-02  -159.70
   57.00     5.00     -11.20  -25.16  -11.03    0.04805   -11.00  LEFT      2.23891E-01    30.23    4.48408E-02  -164.19
   58.00     5.00     -10.79  -24.06  -10.59    0.03236   -12.11  LEFT      2.34625E-01    21.61    5.09214E-02  -167.36
   59.00     5.00     -10.72  -23.47  -10.50    0.01346   -12.97  LEFT      2.36405E-01    13.62    5.45195E-02  -169.90
   60.00     5.00     -10.99  -23.34  -10.74    0.00901   -13.55  RIGHT     2.29332E-01     5.58    5.53050E-02  -172.15
   61.00     5.00     -11.56  -23.69  -11.30    0.03558   -13.76  RIGHT     2.14659E-01    -3.13    5.31122E-02  -174.36
   62.00     5.00     -12.41  -24.58  -12.16    0.06570   -13.36  RIGHT     1.94633E-01   -13.16    4.79572E-02  -176.80
   63.00     5.00     -13.47  -26.14  -13.24    0.09507   -11.98  RIGHT     1.72363E-01   -25.24    4.00558E-02  -179.94
   64.00     5.00     -14.59  -28.70  -14.42    0.11039    -9.27  RIGHT     1.51552E-01   -39.98    2.98534E-02   175.13
   65.00     5.00     -15.54  -33.01  -15.46    0.08815    -5.75  RIGHT     1.35825E-01   -57.46    1.81795E-02   164.24
   66.00     5.00     -16.10  -40.03  -16.08    0.01759    -3.50  RIGHT     1.27298E-01   -76.50    8.09623E-03   119.62
   67.00     5.00     -16.25  -35.77  -16.20    0.07244    -4.40  LEFT      1.25198E-01   -95.08    1.32280E-02    41.32
   68.00     5.00     -16.17  -30.08  -15.99    0.14026    -8.24  LEFT      1.26339E-01  -111.75    2.54602E-02    22.99
   69.00     5.00     -16.11  -26.79  -15.75    0.16648   -13.52  LEFT      1.27220E-01  -126.43    3.71764E-02    16.58
   70.00     5.00     -16.22  -24.77  -15.65    0.15217   -18.87  LEFT      1.25561E-01  -139.84    4.69175E-02    13.18
   71.00     5.00     -16.56  -23.57  -15.78    0.10439   -23.47  LEFT      1.20685E-01  -152.94    5.38476E-02    10.95
   72.00     5.00     -17.11  -23.02  -16.12    0.02895   -26.82  LEFT      1.13324E-01  -166.64    5.73820E-02     9.25
   73.00     5.00     -17.76  -23.05  -16.63    0.06868   -28.35  RIGHT     1.05194E-01   178.41    5.71737E-02     7.78
   74.00     5.00     -18.34  -23.69  -17.23    0.17713   -27.15  RIGHT     9.83304E-02   162.11    5.31333E-02     6.36
   75.00     5.00     -18.73  -25.05  -17.82    0.26650   -22.10  RIGHT     9.40948E-02   145.28    4.54440E-02     4.73
   76.00     5.00     -18.89  -27.42  -18.32    0.28381   -13.81  RIGHT     9.22919E-02   129.29    3.45652E-02     2.39
   77.00     5.00     -18.99  -31.65  -18.76    0.20376    -6.44  RIGHT     9.12400E-02   115.25    2.12455E-02    -2.41
   78.00     5.00     -19.23  -41.30  -19.21    0.06016    -2.92  RIGHT     8.87691E-02   103.38    6.99815E-03   -26.71
   79.00     5.00     -19.79  -37.61  -19.72    0.11549    -3.24  LEFT      8.32058E-02    93.30    1.07014E-02  -150.97
   80.00     5.00     -20.83  -30.08  -20.34    0.31502    -8.02  LEFT      7.38332E-02    84.26    2.54537E-02  -164.19
   81.00     5.00     -22.50  -26.39  -21.01    0.50849   -22.23  LEFT      6.09599E-02    75.23    3.89396E-02  -167.71
   82.00     5.00     -24.97  -24.24  -21.58    0.50515   -49.06  LEFT      4.58473E-02    64.49    4.98670E-02  -169.39
   83.00     5.00     -28.44  -23.03  -21.93    0.27926   -65.17  LEFT      3.07439E-02    48.08    5.73505E-02  -170.39
   84.00     5.00     -32.37  -22.52  -22.09    0.03936   -72.27  LEFT      1.95704E-02    16.69    6.07700E-02  -171.05
   85.00     5.00     -33.33  -22.66  -22.31    0.16765   -76.48  RIGHT     1.75159E-02   -28.70    5.98012E-02  -171.51
   86.00     5.00     -31.75  -23.48  -22.88    0.34080   -79.66  RIGHT     2.10044E-02   -57.23    5.44425E-02  -171.83
   87.00     5.00     -31.15  -25.13  -24.16    0.48292   -82.46  RIGHT     2.24971E-02   -70.39    4.50203E-02  -172.06
   88.00     5.00     -32.47  -28.05  -26.71    0.59559   -85.04  RIGHT     1.93370E-02   -76.88    3.21707E-02  -172.20
   89.00     5.00     -37.04  -33.69  -32.04    0.67922   -87.17  RIGHT     1.14317E-02   -80.05    1.67958E-02  -172.28
    0.00     6.00     -13.01  -32.58  -12.97    0.00000    -6.00  LINEAR    1.81635E-01    75.93    1.90906E-02  -104.07
    1.00     6.00     -12.95  -32.52  -12.90    0.00001    -6.00  LEFT      1.82967E-01    75.51    1.92304E-02  -104.49
    2.00     6.00     -12.84  -32.41  -12.80    0.00005    -6.00  LEFT      1.85203E-01    74.38    1.94652E-02  -105.65
    3.00     6.00     -12.69  -32.26  -12.64    0.00011    -6.00  LEFT      1.88464E-01    72.55    1.98087E-02  -107.51
    4.00     6.00     -12.49  -32.06  -12.44    0.00020    -6.00  LEFT      1.92931E-01    70.10    2.02817E-02  -110.01
    5.00     6.00     -12.23  -31.79  -12.18    0.00033    -6.00  LEFT      1.98827E-01    67.11    2.09104E-02  -113.07
[...]
   16.00   359.00      -7.28  -42.01   -7.28    0.00040     1.05  RIGHT     3.51548E-01    29.14    6.44924E-03    27.88
   17.00   359.00      -6.81  -41.47   -6.81    0.00040     1.06  RIGHT     3.70960E-01    26.57    6.86370E-03    25.33
   18.00   359.00      -6.39  -40.97   -6.39    0.00039     1.07  RIGHT     3.89392E-01    24.16    7.27006E-03    22.96
   19.00   359.00      -6.02  -40.52   -6.02    0.00037     1.08  RIGHT     4.06261E-01    21.87    7.65729E-03    20.74
   20.00   359.00      -5.71  -40.12   -5.71    0.00034     1.09  RIGHT     4.20967E-01    19.68    8.01349E-03    18.65
   21.00   359.00      -5.47  -39.79   -5.47    0.00030     1.10  RIGHT     4.32902E-01    17.55    8.32607E-03    16.67
   22.00   359.00      -5.30  -39.53   -5.30    0.00024     1.11  RIGHT     4.41467E-01    15.46    8.58187E-03    14.76
   23.00   359.00      -5.21  -39.34   -5.21    0.00016     1.13  RIGHT     4.46093E-01    13.38    8.76752E-03    12.90
   24.00   359.00      -5.21  -39.24   -5.20    0.00007     1.14  RIGHT     4.46255E-01    11.26    8.86970E-03    11.07
   25.00   359.00      -5.30  -39.23   -5.30    0.00006     1.15  LEFT      4.41504E-01     9.06    8.87558E-03     9.22
   26.00   359.00      -5.50  -39.33   -5.50    0.00021     1.16  LEFT      4.31491E-01     6.73    8.77337E-03     7.32
   27.00   359.00      -5.82  -39.55   -5.81    0.00040     1.18  LEFT      4.15996E-01     4.21    8.55285E-03     5.31
   28.00   359.00      -6.27  -39.91   -6.26    0.00063     1.19  LEFT      3.94966E-01     1.40    8.20612E-03     3.14
   29.00   359.00      -6.87  -40.44   -6.87    0.00093     1.20  LEFT      3.68552E-01    -1.82    7.72844E-03     0.71
   30.00   359.00      -7.64  -41.15   -7.64    0.00129     1.21  LEFT      3.37168E-01    -5.64    7.11932E-03    -2.13
   31.00   359.00      -8.61  -42.10   -8.61    0.00174     1.21  LEFT      3.01565E-01   -10.34    6.38399E-03    -5.62
   32.00   359.00      -9.80  -43.33   -9.80    0.00228     1.20  LEFT      2.62964E-01   -16.40    5.53604E-03   -10.17
   33.00   359.00     -11.22  -44.94  -11.22    0.00286     1.17  LEFT      2.23310E-01   -24.59    4.60267E-03   -16.60
   34.00   359.00     -12.82  -46.98  -12.82    0.00325     1.11  LEFT      1.85763E-01   -36.15    3.63822E-03   -26.59
   35.00   359.00     -14.36  -49.37  -14.36    0.00277     1.01  LEFT      1.55484E-01   -52.69    2.76304E-03   -43.71
   36.00   359.00     -15.29  -51.15  -15.29    0.00053     0.92  LEFT      1.39681E-01   -74.59    2.25044E-03   -72.72
   37.00   359.00     -15.06  -50.44  -15.06    0.00258     0.96  RIGHT     1.43458E-01   -97.97    2.44209E-03  -106.69
   38.00   359.00     -13.91  -48.02  -13.91    0.00433     1.10  RIGHT     1.63780E-01  -117.32    3.22878E-03  -130.01
   39.00   359.00     -12.51  -45.61  -12.50    0.00460     1.24  RIGHT     1.92572E-01  -131.29    4.25796E-03  -143.32
   40.00   359.00     -11.23  -43.67  -11.23    0.00419     1.35  RIGHT     2.22972E-01  -141.29    5.32265E-03  -151.41
   41.00   359.00     -10.22  -42.19  -10.22    0.00353     1.43  RIGHT     2.50566E-01  -148.81    6.31535E-03  -156.88
   42.00   359.00      -9.49  -41.09   -9.48    0.00277     1.50  RIGHT     2.72584E-01  -154.86    7.16635E-03  -160.93
   43.00   359.00      -9.03  -40.33   -9.03    0.00194     1.56  RIGHT     2.87267E-01  -160.08    7.82254E-03  -164.17
   44.00   359.00      -8.84  -39.88   -8.84    0.00101     1.61  RIGHT     2.93569E-01  -164.87    8.24152E-03  -166.94
   45.00   359.00      -8.92  -39.72   -8.91    0.00005     1.65  LEFT      2.91047E-01  -169.58    8.39071E-03  -169.49
   46.00   359.00      -9.26  -39.87   -9.26    0.00130     1.69  LEFT      2.79827E-01  -174.50    8.24837E-03  -171.97
   47.00   359.00      -9.88  -40.35   -9.87    0.00279     1.71  LEFT      2.60614E-01  -179.94    7.80525E-03  -174.59
   48.00   359.00     -10.79  -41.21  -10.78    0.00459     1.70  LEFT      2.34736E-01   173.63    7.06659E-03  -177.59
   49.00   359.00     -11.99  -42.56  -11.99    0.00667     1.65  LEFT      2.04236E-01   165.57    6.05477E-03   178.59
   50.00   359.00     -13.48  -44.55  -13.48    0.00872     1.52  LEFT      1.72084E-01   154.85    4.81459E-03   173.02
   51.00   359.00     -15.12  -47.49  -15.11    0.00946     1.27  LEFT      1.42586E-01   139.97    3.43097E-03   163.14
   52.00   359.00     -16.50  -51.67  -16.49    0.00607     0.94  LEFT      1.21633E-01   119.68    2.12076E-03   140.06
   53.00   359.00     -16.99  -53.72  -16.99    0.00248     0.82  RIGHT     1.14859E-01    95.61    1.67398E-03    85.79
   54.00   359.00     -16.44  -49.64  -16.44    0.01020     1.11  RIGHT     1.22376E-01    73.14    2.67834E-03    45.34
   55.00   359.00     -15.41  -45.90  -15.40    0.01295     1.54  RIGHT     1.37896E-01    55.69    4.11834E-03    29.98
   56.00   359.00     -14.42  -43.37  -14.41    0.01225     1.92  RIGHT     1.54506E-01    42.71    5.51402E-03    22.61
   57.00   359.00     -13.71  -41.67  -13.70    0.00993     2.22  RIGHT     1.67700E-01    32.57    6.70100E-03    18.16
   58.00   359.00     -13.33  -40.60  -13.32    0.00674     2.45  RIGHT     1.75108E-01    23.98    7.58230E-03    15.00
   59.00   359.00     -13.30  -40.04  -13.29    0.00282     2.63  RIGHT     1.75817E-01    16.02    8.08958E-03    12.49
   60.00   359.00     -13.59  -39.94  -13.58    0.00190     2.75  LEFT      1.69975E-01     8.00    8.17812E-03    10.27
   61.00   359.00     -14.19  -40.32  -14.18    0.00751     2.79  LEFT      1.58571E-01    -0.68    7.82781E-03     8.08
   62.00   359.00     -15.07  -41.24  -15.06    0.01381     2.70  LEFT      1.43316E-01   -10.69    7.04532E-03     5.67
   63.00   359.00     -16.15  -42.83  -16.14    0.01978     2.40  LEFT      1.26521E-01   -22.74    5.86617E-03     2.56
   64.00   359.00     -17.30  -45.41  -17.29    0.02258     1.84  LEFT      1.10910E-01   -37.46    4.35884E-03    -2.35
   65.00   359.00     -18.27  -49.74  -18.27    0.01776     1.14  LEFT      9.91103E-02   -54.91    2.64661E-03   -13.22
   66.00   359.00     -18.86  -56.79  -18.86    0.00352     0.70  LEFT      9.26273E-02   -73.93    1.17536E-03   -57.82
   67.00   359.00     -19.03  -52.55  -19.03    0.01453     0.87  RIGHT     9.08523E-02   -92.49    1.91516E-03  -136.09
   68.00   359.00     -18.97  -46.89  -18.97    0.02854     1.62  RIGHT     9.14423E-02  -109.15    3.67655E-03  -154.40
   69.00   359.00     -18.94  -43.62  -18.92    0.03500     2.67  RIGHT     9.18500E-02  -123.80    5.35502E-03  -160.79
   70.00   359.00     -19.07  -41.62  -19.05    0.03367     3.81  RIGHT     9.04357E-02  -137.19    6.74204E-03  -164.17
   71.00   359.00     -19.43  -40.44  -19.40    0.02452     4.89  RIGHT     8.67265E-02  -150.28    7.72029E-03  -166.39
   72.00   359.00     -20.00  -39.91  -19.96    0.00718     5.75  RIGHT     8.12600E-02  -163.95    8.20921E-03  -168.07
   73.00   359.00     -20.66  -39.96  -20.61    0.01747     6.11  LEFT      7.52752E-02  -178.89    8.16260E-03  -169.52
   74.00   359.00     -21.27  -40.61  -21.22    0.04385     5.62  LEFT      7.02274E-02   164.83    7.57103E-03  -170.93
   75.00   359.00     -21.67  -41.99  -21.63    0.06089     4.27  LEFT      6.70795E-02   148.01    6.46354E-03  -172.54
   76.00   359.00     -21.85  -44.38  -21.82    0.05963     2.58  LEFT      6.56814E-02   132.04    4.90781E-03  -174.86
   77.00   359.00     -21.96  -48.62  -21.95    0.04113     1.24  LEFT      6.48289E-02   118.00    3.01175E-03  -179.65
   78.00   359.00     -22.21  -58.28  -22.21    0.01203     0.58  LEFT      6.29796E-02   106.15    9.90584E-04   156.07
   79.00   359.00     -22.79  -54.60  -22.78    0.02311     0.64  RIGHT     5.89518E-02    96.08    1.51271E-03    31.82
   80.00   359.00     -23.84  -47.09  -23.82    0.06393     1.45  RIGHT     5.22458E-02    87.05    3.59353E-03    18.61
   81.00   359.00     -25.51  -43.40  -25.44    0.11311     3.36  RIGHT     4.30876E-02    78.04    5.49121E-03    15.09
   82.00   359.00     -27.99  -41.26  -27.79    0.17238     7.51  RIGHT     3.23728E-02    67.30    7.02504E-03    13.42
   83.00   359.00     -31.47  -40.06  -30.91    0.21256    17.04  RIGHT     2.16888E-02    50.90    8.07204E-03    12.43
   84.00   359.00     -35.40  -39.56  -33.99    0.06052    31.67  RIGHT     1.37955E-02    19.52    8.54666E-03    11.78
   85.00   359.00     -36.37  -39.71  -34.72    0.30792    31.86  LEFT      1.23391E-02   -25.87    8.40487E-03    11.33
   86.00   359.00     -34.80  -40.53  -33.77    0.44416    15.22  LEFT      1.47886E-02   -54.39    7.64758E-03    11.01
   87.00   359.00     -34.21  -42.18  -33.56    0.38802     5.44  LEFT      1.58329E-02   -67.54    6.32139E-03    10.78
   88.00   359.00     -35.52  -45.10  -35.07    0.33014     1.98  LEFT      1.36048E-02   -74.03    4.51579E-03    10.64
   89.00   359.00     -40.09  -50.75  -39.73    0.29287     0.72  LEFT      8.04146E-03   -77.20    2.35720E-03    10.56
    0.00   360.00     -12.97 -999.99  -12.97    0.00000     0.00  LINEAR    1.82635E-01    75.93    1.93481E-14    75.93
    1.00   360.00     -12.95 -999.99  -12.95    0.00000     0.00  LINEAR    1.82998E-01    75.57    1.93863E-14    75.56
    2.00   360.00     -12.89 -999.99  -12.89    0.00000     0.00  LINEAR    1.84240E-01    74.48    1.95177E-14    74.46
    3.00   360.00     -12.79 -999.99  -12.79    0.00000     0.00  LINEAR    1.86468E-01    72.71    1.97544E-14    72.65
    4.00   360.00     -12.63 -999.99  -12.63    0.00000     0.00  LINEAR    1.89842E-01    70.32    2.01153E-14    70.21
    5.00   360.00     -12.42 -999.99  -12.42    0.00000     0.00  LINEAR    1.94563E-01    67.38    2.06243E-14    67.19
    6.00   360.00     -12.14 -999.99  -12.14    0.00000     0.00  LINEAR    2.00841E-01    64.00    2.13072E-14    63.73
    7.00   360.00     -11.80 -999.99  -11.80    0.00000     0.00  LINEAR    2.08866E-01    60.31    2.21890E-14    59.92
    8.00   360.00     -11.40 -999.99  -11.40    0.00000     0.00  LINEAR    2.18781E-01    56.44    2.32905E-14    55.92
    9.00   360.00     -10.94 -999.99  -10.94    0.00000     0.00  LINEAR    2.30658E-01    52.50    2.46253E-14    51.85
   10.00   360.00     -10.43 -999.99  -10.43    0.00000     0.00  LINEAR    2.44482E-01    48.61    2.61980E-14    47.82
   11.00   360.00      -9.89 -999.99   -9.89    0.00000     0.00  LINEAR    2.60145E-01    44.83    2.80037E-14    43.92
   12.00   360.00      -9.33 -999.99   -9.33    0.00000     0.00  LINEAR    2.77452E-01    41.24    3.00274E-14    40.22
   13.00   360.00      -8.77 -999.99   -8.77    0.00000     0.00  LINEAR    2.96122E-01    37.85    3.22447E-14    36.74
   14.00   360.00      -8.21 -999.99   -8.21    0.00000     0.00  LINEAR    3.15803E-01    34.69    3.46228E-14    33.50
   15.00   360.00      -7.67 -999.99   -7.67    0.00000     0.00  LINEAR    3.36078E-01    31.73    3.71207E-14    30.50
   16.00   360.00      -7.16 -999.99   -7.16    0.00000     0.00  LINEAR    3.56473E-01    28.98    3.96900E-14    27.73
   17.00   360.00      -6.68 -999.99   -6.68    0.00000     0.00  LINEAR    3.76465E-01    26.40    4.22753E-14    25.16
   18.00   360.00      -6.25 -999.99   -6.25    0.00000     0.00  LINEAR    3.95491E-01    23.98    4.48145E-14    22.78
   19.00   360.00      -5.88 -999.99   -5.88    0.00000     0.00  LINEAR    4.12957E-01    21.68    4.72395E-14    20.55
   20.00   360.00      -5.56 -999.99   -5.56    0.00000     0.00  LINEAR    4.28247E-01    19.48    4.94765E-14    18.45
   21.00   360.00      -5.31 -999.99   -5.31    0.00000     0.00  LINEAR    4.40736E-01    17.34    5.14470E-14    16.46
   22.00   360.00      -5.14 -999.99   -5.14    0.00000     0.00  LINEAR    4.49809E-01    15.24    5.30692E-14    14.54
   23.00   360.00      -5.04 -999.99   -5.04    0.00000     0.00  LINEAR    4.54873E-01    13.14    5.42592E-14    12.67
   24.00   360.00      -5.03 -999.99   -5.03    0.00000     0.00  LINEAR    4.55388E-01    11.01    5.49336E-14    10.82
   25.00   360.00      -5.12 -999.99   -5.12    0.00000     0.00  LINEAR    4.50881E-01     8.80    5.50117E-14     8.96
   26.00   360.00      -5.31 -999.99   -5.31    0.00000     0.00  LINEAR    4.40985E-01     6.46    5.44189E-14     7.05
   27.00   360.00      -5.62 -999.99   -5.62    0.00000     0.00  LINEAR    4.25464E-01     3.93    5.30903E-14     5.04
   28.00   360.00      -6.06 -999.99   -6.06    0.00000     0.00  LINEAR    4.04249E-01     1.11    5.09752E-14     2.85
   29.00   360.00      -6.66 -999.99   -6.66    0.00000     0.00  LINEAR    3.77486E-01    -2.12    4.80425E-14     0.41
   30.00   360.00      -7.43 -999.99   -7.43    0.00000     0.00  LINEAR    3.45587E-01    -5.95    4.42874E-14    -2.44
   31.00   360.00      -8.39 -999.99   -8.39    0.00000     0.00  LINEAR    3.09311E-01   -10.67    3.97409E-14    -5.94
   32.00   360.00      -9.57 -999.99   -9.57    0.00000     0.00  LINEAR    2.69905E-01   -16.74    3.44861E-14   -10.51
   33.00   360.00     -10.99 -999.99  -10.99    0.00000     0.00  LINEAR    2.29359E-01   -24.94    2.86913E-14   -16.95
   34.00   360.00     -12.58 -999.99  -12.58    0.00000     0.00  LINEAR    1.90922E-01   -36.52    2.26944E-14   -26.96
   35.00   360.00     -14.12 -999.99  -14.12    0.00000     0.00  LINEAR    1.59908E-01   -53.07    1.72466E-14   -44.09
   36.00   360.00     -15.05 -999.99  -15.05    0.00000     0.00  LINEAR    1.43748E-01   -74.98    1.40561E-14   -73.11
   37.00   360.00     -14.81 -999.99  -14.81    0.00000     0.00  LINEAR    1.47729E-01   -98.37    1.52628E-14  -107.10
   38.00   360.00     -13.65 -999.99  -13.65    0.00000     0.00  LINEAR    1.68761E-01  -117.73    2.01920E-14  -130.43
   39.00   360.00     -12.24 -999.99  -12.24    0.00000     0.00  LINEAR    1.98550E-01  -131.72    2.66446E-14  -143.74
   40.00   360.00     -10.96 -999.99  -10.96    0.00000     0.00  LINEAR    2.30031E-01  -141.73    3.33270E-14  -151.85
   41.00   360.00      -9.94 -999.99   -9.94    0.00000     0.00  LINEAR    2.58651E-01  -149.27    3.95658E-14  -157.33
   42.00   360.00      -9.21 -999.99   -9.21    0.00000     0.00  LINEAR    2.81541E-01  -155.33    4.49232E-14  -161.39
   43.00   360.00      -8.75 -999.99   -8.75    0.00000     0.00  LINEAR    2.96874E-01  -160.56    4.90643E-14  -164.65
   44.00   360.00      -8.55 -999.99   -8.55    0.00000     0.00  LINEAR    3.03555E-01  -165.37    5.17207E-14  -167.44
   45.00   360.00      -8.62 -999.99   -8.62    0.00000     0.00  LINEAR    3.01109E-01  -170.09    5.26853E-14  -169.99
   46.00   360.00      -8.96 -999.99   -8.96    0.00000     0.00  LINEAR    2.89653E-01  -175.01    5.18189E-14  -172.49
   47.00   360.00      -9.57 -999.99   -9.57    0.00000     0.00  LINEAR    2.69905E-01   179.52    4.90603E-14  -175.12
   48.00   360.00     -10.48 -999.99  -10.48    0.00000     0.00  LINEAR    2.43226E-01   173.09    4.44397E-14  -178.14
   49.00   360.00     -11.68 -999.99  -11.68    0.00000     0.00  LINEAR    2.11726E-01   165.02    3.80952E-14   178.03
   50.00   360.00     -13.17 -999.99  -13.17    0.00000     0.00  LINEAR    1.78480E-01   154.28    3.03067E-14   172.45
   51.00   360.00     -14.79 -999.99  -14.79    0.00000     0.00  LINEAR    1.47954E-01   139.39    2.16072E-14   162.56
   52.00   360.00     -16.17 -999.99  -16.17    0.00000     0.00  LINEAR    1.26269E-01   119.08    1.33619E-14   139.46
   53.00   360.00     -16.67 -999.99  -16.67    0.00000     0.00  LINEAR    1.19290E-01    95.00    1.05516E-14    85.18
   54.00   360.00     -16.11 -999.99  -16.11    0.00000     0.00  LINEAR    1.27150E-01    72.51    1.68895E-14    44.72
   55.00   360.00     -15.07 -999.99  -15.07    0.00000     0.00  LINEAR    1.43335E-01    55.05    2.59808E-14    29.34
   56.00   360.00     -14.08 -999.99  -14.08    0.00000     0.00  LINEAR    1.60664E-01    42.06    3.47994E-14    21.96
   57.00   360.00     -13.36 -999.99  -13.36    0.00000     0.00  LINEAR    1.74452E-01    31.91    4.23070E-14    17.50
   58.00   360.00     -12.99 -999.99  -12.99    0.00000     0.00  LINEAR    1.82225E-01    23.31    4.78890E-14    14.33
   59.00   360.00     -12.95 -999.99  -12.95    0.00000     0.00  LINEAR    1.83030E-01    15.33    5.11114E-14    11.81
   60.00   360.00     -13.24 -999.99  -13.24    0.00000     0.00  LINEAR    1.77010E-01     7.31    5.16888E-14     9.57
   61.00   360.00     -13.84 -999.99  -13.84    0.00000     0.00  LINEAR    1.65190E-01    -1.39    4.94914E-14     7.38
   62.00   360.00     -14.71 -999.99  -14.71    0.00000     0.00  LINEAR    1.49346E-01   -11.41    4.45585E-14     4.95
   63.00   360.00     -15.79 -999.99  -15.79    0.00000     0.00  LINEAR    1.31886E-01   -23.47    3.71125E-14     1.83
   64.00   360.00     -16.93 -999.99  -16.93    0.00000     0.00  LINEAR    1.15647E-01   -38.20    2.75846E-14    -3.09
   65.00   360.00     -17.91 -999.99  -17.91    0.00000     0.00  LINEAR    1.03373E-01   -55.66    1.67537E-14   -13.97
   66.00   360.00     -18.49 -999.99  -18.49    0.00000     0.00  LINEAR    9.66378E-02   -74.69    7.44232E-15   -58.58
   67.00   360.00     -18.66 -999.99  -18.66    0.00000     0.00  LINEAR    9.48109E-02   -93.26    1.21299E-14  -136.86
   68.00   360.00     -18.60 -999.99  -18.60    0.00000     0.00  LINEAR    9.54504E-02  -109.93    2.32918E-14  -155.18
   69.00   360.00     -18.56 -999.99  -18.56    0.00000     0.00  LINEAR    9.58989E-02  -124.59    3.39333E-14  -161.58
   70.00   360.00     -18.69 -999.99  -18.69    0.00000     0.00  LINEAR    9.44437E-02  -137.99    4.27322E-14  -164.97
   71.00   360.00     -19.06 -999.99  -19.06    0.00000     0.00  LINEAR    9.05895E-02  -151.08    4.89430E-14  -167.19
   72.00   360.00     -19.62 -999.99  -19.62    0.00000     0.00  LINEAR    8.48967E-02  -164.77    5.20531E-14  -168.89
   73.00   360.00     -20.28 -999.99  -20.28    0.00000     0.00  LINEAR    7.86592E-02  -179.72    5.17675E-14  -170.34
   74.00   360.00     -20.88 -999.99  -20.88    0.00000     0.00  LINEAR    7.33977E-02   164.00    4.80243E-14  -171.76
   75.00   360.00     -21.28 -999.99  -21.28    0.00000     0.00  LINEAR    7.01194E-02   147.17    4.10063E-14  -173.38
   76.00   360.00     -21.46 -999.99  -21.46    0.00000     0.00  LINEAR    6.86688E-02   131.19    3.11412E-14  -175.71
   77.00   360.00     -21.57 -999.99  -21.57    0.00000     0.00  LINEAR    6.77874E-02   117.15    1.91131E-14   179.50
   78.00   360.00     -21.82 -999.99  -21.82    0.00000     0.00  LINEAR    6.58626E-02   105.30    6.28726E-15   155.21
   79.00   360.00     -22.40 -999.99  -22.40    0.00000     0.00  LINEAR    6.16581E-02    95.22    9.60238E-15    30.95
   80.00   360.00     -23.45 -999.99  -23.45    0.00000     0.00  LINEAR    5.46504E-02    86.19    2.28136E-14    17.74
   81.00   360.00     -25.12 -999.99  -25.12    0.00000     0.00  LINEAR    4.50752E-02    77.17    3.48646E-14    14.22
   82.00   360.00     -27.60 -999.99  -27.60    0.00000     0.00  LINEAR    3.38692E-02    66.42    4.46072E-14    12.55
   83.00   360.00     -31.08 -999.99  -31.08    0.00000     0.00  LINEAR    2.26932E-02    50.02    5.12595E-14    11.55
   84.00   360.00     -35.01 -999.99  -35.01    0.00000     0.00  LINEAR    1.44353E-02    18.64    5.42772E-14    10.90
   85.00   360.00     -35.98 -999.99  -35.98    0.00000     0.00  LINEAR    1.29122E-02   -26.75    5.33798E-14    10.44
   86.00   360.00     -34.40 -999.99  -34.40    0.00000     0.00  LINEAR    1.54762E-02   -55.28    4.85726E-14    10.12
   87.00   360.00     -33.81 -999.99  -33.81    0.00000     0.00  LINEAR    1.65696E-02   -68.43    4.01510E-14     9.89
   88.00   360.00     -35.13 -999.99  -35.13    0.00000     0.00  LINEAR    1.42382E-02   -74.92    2.86833E-14     9.75
   89.00   360.00     -39.70 -999.99  -39.70    0.00000     0.00  LINEAR    8.41600E-03   -78.09    1.49726E-14     9.67






 ***** INPUT LINE  5  EN   0    0    0    0  0.00000E+00  0.00000E+00  0.00000E+00  0.00000E+00  0.00000E+00  0.00000E+00

 RUN TIME =     0.560
