1
 x13



                                ***********************************************
                                *                                             *
                                *  NUMERICAL ELECTROMAGNETICS CODE (NEC-5)    *
                                *                                             *
                                ***********************************************




                      **********************************************************

                                                                                                       

                      **********************************************************





                                 - - - STRUCTURE SPECIFICATION - - -

                                     COORDINATES MUST BE INPUT IN
                                     METERS OR BE SCALED TO METERS
                                     BEFORE STRUCTURE INPUT IS ENDED

 Model definition commands:

 GW    1    13 -1.48600E+00  0.00000E+00  1.50000E+01  1.48550E+00  0.00000E+00  1.50000E+01  7.95000E-03
 GW    2    13 -1.43600E+00  1.49500E+00  1.50000E+01  1.43550E+00  1.49500E+00  1.50000E+01  7.95000E-03
 GW    3    13 -1.33100E+00  3.22500E+00  1.50000E+01  1.33050E+00  3.22500E+00  1.50000E+01  7.95000E-03
 GW    4    13 -1.32000E+00  5.65400E+00  1.50000E+01  1.31950E+00  5.65400E+00  1.50000E+01  7.95000E-03
 GW    5    13 -1.32400E+00  7.58800E+00  1.50000E+01  1.32350E+00  7.58800E+00  1.50000E+01  7.95000E-03
 GW    6    13 -1.19300E+00  1.01120E+01  1.50000E+01  1.19250E+00  1.01120E+01  1.50000E+01  7.95000E-03
 GW    7    13 -1.48600E+00  0.00000E+00  1.50000E+01  1.48550E+00  0.00000E+00  1.50000E+01  7.95000E-03
 GW    8    13 -1.43600E+00  1.49500E+00  1.50000E+01  1.43550E+00  1.49500E+00  1.50000E+01  7.95000E-03
 GW    9    13 -1.33100E+00  3.22500E+00  1.50000E+01  1.33050E+00  3.22500E+00  1.50000E+01  7.95000E-03
 GW   10    13 -1.32000E+00  5.65400E+00  1.50000E+01  1.31950E+00  5.65400E+00  1.50000E+01  7.95000E-03
 GW   11    13 -1.32400E+00  7.58800E+00  1.50000E+01  1.32350E+00  7.58800E+00  1.50000E+01  7.95000E-03
 GW   12    13 -1.19300E+00  1.01120E+01  1.50000E+01  1.19250E+00  1.01120E+01  1.50000E+01  7.95000E-03
 GM    0    0  0.00000E+00  0.00000E+00  0.00000E+00  6.05600E+00  0.00000E+00  0.00000E+00    7    1   12   13
 GE    1    0

   GROUND PLANE SPECIFIED.

   WHERE WIRE ENDS TOUCH GROUND, CURRENT WILL BE INTERPOLATED TO IMAGE IN GROUND PLANE.


 Number of nodes :   168
 Number of wire elements :   156
 Number of patch elements:     0
 Number unknowns:   144




 ***** INPUT LINE  1  EX   0    2    7    0  1.00000E+00  0.00000E+00  0.00000E+00  0.00000E+00  0.00000E+00  0.00000E+00
 ***** INPUT LINE  2  EX   0    8    7    0  1.00000E+00  0.00000E+00  0.00000E+00  0.00000E+00  0.00000E+00  0.00000E+00
 ***** INPUT LINE  3  GN   2    0    0    0  1.00000E+01  2.00000E-03  0.00000E+00  0.00000E+00  0.00000E+00  0.00000E+00
 ***** INPUT LINE  4  FR   0    1    0    0  4.95000E+01  0.00000E+00  0.00000E+00  0.00000E+00  0.00000E+00  0.00000E+00
 ***** INPUT LINE  5  RP   0   90  361 1000  0.00000E+00  0.00000E+00  1.00000E+00  1.00000E+00  0.00000E+00  0.00000E+00




                                 - - - - - - FREQUENCY - - - - - -

                                    FREQUENCY= 4.9500E+01 MHZ
                                    WAVELENGTH= 6.0566E+00 METERS



                                  - - - ANTENNA ENVIRONMENT - - -


Sommerfeld integral tables read:
Potentials: 11 12 13 14 15
E, H:
                                        FINITE GROUND.  SOMMERFELD SOLUTION
                                        RELATIVE DIELECTRIC CONST.= 10.000
                                        CONDUCTIVITY= 2.000E-03 MHOS/METER
                                        COMPLEX DIELECTRIC CONSTANT= 1.00000E+01-7.26303E-01



                               - - - STRUCTURE IMPEDANCE LOADING - - -

                                   THIS STRUCTURE IS NOT LOADED
ALLOCATE CM:          20736



                                - - - MATRIX TIMING - - -

                        FILL=    0.070 SEC.,  FACTOR=    0.000 SEC.



                                          - - - ANTENNA INPUT PARAMETERS - - -

   TAG   SEG.    VOLTAGE (VOLTS)         CURRENT (AMPS)         IMPEDANCE (OHMS)        ADMITTANCE (MHOS)      POWER
   NO.   NO.    REAL        IMAG.       REAL        IMAG.       REAL        IMAG.       REAL        IMAG.     (WATTS)
   2    20 1  1.0000E+00  0.0000E+00  2.3851E-02 -6.0283E-03  3.9409E+01  9.9603E+00  2.3851E-02 -6.0283E-03  1.1926E-02
   8    98 1  1.0000E+00  0.0000E+00  2.3853E-02 -6.0282E-03  3.9406E+01  9.9587E+00  2.3853E-02 -6.0282E-03  1.1927E-02



                                       - - - Wire Currents - - -

                             Lengths normalized by wavelength (or 2.*pi/CABS(k))

  Elem.  Tag            Coord. of seg. center          Seg.            - - - Current (Amps) - - -
   No.   No.     X            Y            Z           Length       Real         Imag.        Mag.         Phase
      1    1 -2.26483E-01  0.00000E+00  2.47665E+00  3.77404E-02 -9.38349E-04  1.34460E-03  1.63965E-03  124.9098
      2    1 -1.88743E-01  0.00000E+00  2.47665E+00  3.77404E-02 -2.64855E-03  3.78100E-03  4.61636E-03  125.0109
      3    1 -1.51003E-01  0.00000E+00  2.47665E+00  3.77404E-02 -4.08040E-03  5.79601E-03  7.08826E-03  125.1456
      4    1 -1.13262E-01  0.00000E+00  2.47665E+00  3.77404E-02 -5.26645E-03  7.44774E-03  9.12164E-03  125.2649
      5    1 -7.55220E-02  0.00000E+00  2.47665E+00  3.77404E-02 -6.16043E-03  8.68072E-03  1.06445E-02  125.3621
      6    1 -3.77816E-02  0.00000E+00  2.47665E+00  3.77404E-02 -6.71936E-03  9.44315E-03  1.15898E-02  125.4341
      7    1 -4.12775E-05  0.00000E+00  2.47665E+00  3.77404E-02 -6.91412E-03  9.70065E-03  1.19125E-02  125.4793
      8    1  3.76991E-02  0.00000E+00  2.47665E+00  3.77404E-02 -6.73383E-03  9.44140E-03  1.15967E-02  125.4974
      9    1  7.54394E-02  0.00000E+00  2.47665E+00  3.77404E-02 -6.18707E-03  8.67752E-03  1.06574E-02  125.4889
     10    1  1.13180E-01  0.00000E+00  2.47665E+00  3.77404E-02 -5.30081E-03  7.44364E-03  9.13818E-03  125.4556
     11    1  1.50920E-01  0.00000E+00  2.47665E+00  3.77404E-02 -4.11612E-03  5.79175E-03  7.10540E-03  125.4009
     12    1  1.88660E-01  0.00000E+00  2.47665E+00  3.77404E-02 -2.67761E-03  3.77746E-03  4.63020E-03  125.3305
     13    1  2.26401E-01  0.00000E+00  2.47665E+00  3.77404E-02 -9.50111E-04  1.34314E-03  1.64521E-03  125.2749
     14    2 -2.18863E-01  2.46840E-01  2.47665E+00  3.64703E-02  3.35999E-03 -1.11689E-03  3.54076E-03  -18.3872
     15    2 -1.82393E-01  2.46840E-01  2.47665E+00  3.64703E-02  9.41631E-03 -3.08197E-03  9.90785E-03  -18.1233
     16    2 -1.45922E-01  2.46840E-01  2.47665E+00  3.64703E-02  1.43751E-02 -4.59170E-03  1.50907E-02  -17.7145
     17    2 -1.09452E-01  2.46840E-01  2.47665E+00  3.64703E-02  1.84119E-02 -5.71235E-03  1.92777E-02  -17.2367
     18    2 -7.29818E-02  2.46840E-01  2.47665E+00  3.64703E-02  2.14079E-02 -6.40851E-03  2.23465E-02  -16.6652
     19    2 -3.65116E-02  2.46840E-01  2.47665E+00  3.64703E-02  2.32491E-02 -6.64202E-03  2.41793E-02  -15.9441
     20    2 -4.12775E-05  2.46840E-01  2.47665E+00  3.64703E-02  2.38601E-02 -6.33340E-03  2.46863E-02  -14.8657
     21    2  3.64290E-02  2.46840E-01  2.47665E+00  3.64703E-02  2.32161E-02 -6.12176E-03  2.40096E-02  -14.7719
     22    2  7.28993E-02  2.46840E-01  2.47665E+00  3.64703E-02  2.13469E-02 -6.01667E-03  2.21786E-02  -15.7406
     23    2  1.09370E-01  2.46840E-01  2.47665E+00  3.64703E-02  1.83328E-02 -5.39691E-03  1.91107E-02  -16.4036
     24    2  1.45840E-01  2.46840E-01  2.47665E+00  3.64703E-02  1.42923E-02 -4.35544E-03  1.49412E-02  -16.9481
     25    2  1.82310E-01  2.46840E-01  2.47665E+00  3.64703E-02  9.34820E-03 -2.93216E-03  9.79727E-03  -17.4146
     26    2  2.18780E-01  2.46840E-01  2.47665E+00  3.64703E-02  3.33218E-03 -1.06457E-03  3.49810E-03  -17.7178
     27    3 -2.02860E-01  5.32480E-01  2.47665E+00  3.38031E-02 -2.21204E-03 -3.52742E-04  2.23999E-03 -170.9396
     28    3 -1.69057E-01  5.32480E-01  2.47665E+00  3.38031E-02 -6.16423E-03 -9.79707E-04  6.24160E-03 -170.9693
     29    3 -1.35254E-01  5.32480E-01  2.47665E+00  3.38031E-02 -9.34883E-03 -1.47871E-03  9.46505E-03 -171.0119
     30    3 -1.01451E-01  5.32480E-01  2.47665E+00  3.38031E-02 -1.19189E-02 -1.87603E-03  1.20656E-02 -171.0551
     31    3 -6.76475E-02  5.32480E-01  2.47665E+00  3.38031E-02 -1.38187E-02 -2.16457E-03  1.39872E-02 -171.0975
     32    3 -3.38444E-02  5.32480E-01  2.47665E+00  3.38031E-02 -1.49890E-02 -2.33681E-03  1.51701E-02 -171.1388
     33    3 -4.12775E-05  5.32480E-01  2.47665E+00  3.38031E-02 -1.53890E-02 -2.38808E-03  1.55732E-02 -171.1792
     34    3  3.37618E-02  5.32480E-01  2.47665E+00  3.38031E-02 -1.50038E-02 -2.31766E-03  1.51817E-02 -171.2188
     35    3  6.75649E-02  5.32480E-01  2.47665E+00  3.38031E-02 -1.38462E-02 -2.12912E-03  1.40089E-02 -171.2582
     36    3  1.01368E-01  5.32480E-01  2.47665E+00  3.38031E-02 -1.19551E-02 -1.82990E-03  1.20944E-02 -171.2976
     37    3  1.35171E-01  5.32480E-01  2.47665E+00  3.38031E-02 -9.38758E-03 -1.43016E-03  9.49590E-03 -171.3378
     38    3  1.68974E-01  5.32480E-01  2.47665E+00  3.38031E-02 -6.19695E-03 -9.39551E-04  6.26777E-03 -171.3788
     39    3  2.02777E-01  5.32480E-01  2.47665E+00  3.38031E-02 -2.22566E-03 -3.36273E-04  2.25092E-03 -171.4082
     40    4 -2.01183E-01  9.33532E-01  2.47665E+00  3.35237E-02  1.36959E-03  1.00377E-03  1.69804E-03   36.2375
     41    4 -1.67660E-01  9.33532E-01  2.47665E+00  3.35237E-02  3.81463E-03  2.79353E-03  4.72813E-03   36.2160
     42    4 -1.34136E-01  9.33532E-01  2.47665E+00  3.35237E-02  5.78277E-03  4.22967E-03  7.16453E-03   36.1827
     43    4 -1.00612E-01  9.33532E-01  2.47665E+00  3.35237E-02  7.37235E-03  5.38486E-03  9.12953E-03   36.1449
     44    4 -6.70887E-02  9.33532E-01  2.47665E+00  3.35237E-02  8.55086E-03  6.23604E-03  1.05833E-02   36.1028
     45    4 -3.35650E-02  9.33532E-01  2.47665E+00  3.35237E-02  9.28270E-03  6.75824E-03  1.14823E-02   36.0564
     46    4 -4.12775E-05  9.33532E-01  2.47665E+00  3.35237E-02  9.54236E-03  6.93428E-03  1.17958E-02   36.0053
     47    4  3.34824E-02  9.33532E-01  2.47665E+00  3.35237E-02  9.31913E-03  6.75817E-03  1.15117E-02   35.9494
     48    4  6.70061E-02  9.33532E-01  2.47665E+00  3.35237E-02  8.61842E-03  6.23602E-03  1.06379E-02   35.8883
     49    4  1.00530E-01  9.33532E-01  2.47665E+00  3.35237E-02  7.46055E-03  5.38503E-03  9.20100E-03   35.8218
     50    4  1.34054E-01  9.33532E-01  2.47665E+00  3.35237E-02  5.87607E-03  4.23013E-03  7.24032E-03   35.7498
     51    4  1.67577E-01  9.33532E-01  2.47665E+00  3.35237E-02  3.89235E-03  2.79422E-03  4.79145E-03   35.6736
     52    4  2.01101E-01  9.33532E-01  2.47665E+00  3.35237E-02  1.40164E-03  1.00414E-03  1.72421E-03   35.6180
     53    5 -2.01793E-01  1.25286E+00  2.47665E+00  3.36253E-02 -6.57878E-04 -1.36478E-03  1.51507E-03 -115.7359
     54    5 -1.68168E-01  1.25286E+00  2.47665E+00  3.36253E-02 -1.83310E-03 -3.80160E-03  4.22048E-03 -115.7430
     55    5 -1.34542E-01  1.25286E+00  2.47665E+00  3.36253E-02 -2.78005E-03 -5.76336E-03  6.39883E-03 -115.7511
     56    5 -1.00917E-01  1.25286E+00  2.47665E+00  3.36253E-02 -3.54482E-03 -7.34721E-03  8.15764E-03 -115.7560
     57    5 -6.72919E-02  1.25286E+00  2.47665E+00  3.36253E-02 -4.11103E-03 -8.52042E-03  9.46035E-03 -115.7569
     58    5 -3.36666E-02  1.25286E+00  2.47665E+00  3.36253E-02 -4.46116E-03 -9.24745E-03  1.02673E-02 -115.7536
     59    5 -4.12775E-05  1.25286E+00  2.47665E+00  3.36253E-02 -4.58286E-03 -9.50304E-03  1.05504E-02 -115.7458
     60    5  3.35840E-02  1.25286E+00  2.47665E+00  3.36253E-02 -4.47135E-03 -9.27696E-03  1.02983E-02 -115.7333
     61    5  6.72093E-02  1.25286E+00  2.47665E+00  3.36253E-02 -4.12997E-03 -8.57519E-03  9.51791E-03 -115.7163
     62    5  1.00835E-01  1.25286E+00  2.47665E+00  3.36253E-02 -3.56958E-03 -7.41877E-03  8.23287E-03 -115.6948
     63    5  1.34460E-01  1.25286E+00  2.47665E+00  3.36253E-02 -2.80630E-03 -5.83917E-03  6.47852E-03 -115.6689
     64    5  1.68085E-01  1.25286E+00  2.47665E+00  3.36253E-02 -1.85502E-03 -3.86487E-03  4.28700E-03 -115.6396
     65    5  2.01711E-01  1.25286E+00  2.47665E+00  3.36253E-02 -6.66935E-04 -1.39090E-03  1.54254E-03 -115.6176
     66    6 -1.81827E-01  1.66959E+00  2.47665E+00  3.02977E-02 -1.23560E-04  6.43706E-04  6.55457E-04  100.8658
     67    6 -1.51530E-01  1.66959E+00  2.47665E+00  3.02977E-02 -3.42272E-04  1.78003E-03  1.81264E-03  100.8842
     68    6 -1.21232E-01  1.66959E+00  2.47665E+00  3.02977E-02 -5.15796E-04  2.67550E-03  2.72477E-03  100.9119
     69    6 -9.09344E-02  1.66959E+00  2.47665E+00  3.02977E-02 -6.55301E-04  3.38956E-03  3.45232E-03  100.9420
     70    6 -6.06367E-02  1.66959E+00  2.47665E+00  3.02977E-02 -7.59080E-04  3.91444E-03  3.98736E-03  100.9745
     71    6 -3.03390E-02  1.66959E+00  2.47665E+00  3.02977E-02 -8.24715E-04  4.23896E-03  4.31844E-03  101.0097
     72    6 -4.12775E-05  1.66959E+00  2.47665E+00  3.02977E-02 -8.50225E-04  4.35453E-03  4.43676E-03  101.0480
     73    6  3.02564E-02  1.66959E+00  2.47665E+00  3.02977E-02 -8.34455E-04  4.25727E-03  4.33828E-03  101.0898
     74    6  6.05541E-02  1.66959E+00  2.47665E+00  3.02977E-02 -7.77180E-04  3.94849E-03  4.02425E-03  101.1352
     75    6  9.08518E-02  1.66959E+00  2.47665E+00  3.02977E-02 -6.79009E-04  3.43421E-03  3.50069E-03  101.1842
     76    6  1.21150E-01  1.66959E+00  2.47665E+00  3.02977E-02 -5.40997E-04  2.72305E-03  2.77627E-03  101.2368
     77    6  1.51447E-01  1.66959E+00  2.47665E+00  3.02977E-02 -3.63407E-04  1.82000E-03  1.85592E-03  101.2920
     78    6  1.81745E-01  1.66959E+00  2.47665E+00  3.02977E-02 -1.32322E-04  6.60302E-04  6.73430E-04  101.3317
     79    7  7.73423E-01  0.00000E+00  2.47665E+00  3.77404E-02 -9.50563E-04  1.34427E-03  1.64640E-03  125.2650
     80    7  8.11164E-01  0.00000E+00  2.47665E+00  3.77404E-02 -2.67877E-03  3.78053E-03  4.63338E-03  125.3202
     81    7  8.48904E-01  0.00000E+00  2.47665E+00  3.77404E-02 -4.11765E-03  5.79610E-03  7.10984E-03  125.3906
     82    7  8.86644E-01  0.00000E+00  2.47665E+00  3.77404E-02 -5.30246E-03  7.44854E-03  9.14312E-03  125.4463
     83    7  9.24385E-01  0.00000E+00  2.47665E+00  3.77404E-02 -6.18861E-03  8.68212E-03  1.06620E-02  125.4812
     84    7  9.62125E-01  0.00000E+00  2.47665E+00  3.77404E-02 -6.73508E-03  9.44497E-03  1.16004E-02  125.4921
     85    7  9.99865E-01  0.00000E+00  2.47665E+00  3.77404E-02 -6.91497E-03  9.70271E-03  1.19147E-02  125.4769
     86    7  1.03761E+00  0.00000E+00  2.47665E+00  3.77404E-02 -6.71974E-03  9.44358E-03  1.15903E-02  125.4344
     87    7  1.07535E+00  0.00000E+00  2.47665E+00  3.77404E-02 -6.16037E-03  8.67979E-03  1.06437E-02  125.3647
     88    7  1.11309E+00  0.00000E+00  2.47665E+00  3.77404E-02 -5.26602E-03  7.44600E-03  9.11997E-03  125.2690
     89    7  1.15083E+00  0.00000E+00  2.47665E+00  3.77404E-02 -4.07976E-03  5.79411E-03  7.08634E-03  125.1502
     90    7  1.18857E+00  0.00000E+00  2.47665E+00  3.77404E-02 -2.64794E-03  3.77952E-03  4.61480E-03  125.0151
     91    7  1.22631E+00  0.00000E+00  2.47665E+00  3.77404E-02 -9.38077E-04  1.34404E-03  1.63903E-03  124.9133
     92    8  7.81044E-01  2.46840E-01  2.47665E+00  3.64703E-02  3.32959E-03 -1.11969E-03  3.51281E-03  -18.5870
     93    8  8.17514E-01  2.46840E-01  2.47665E+00  3.64703E-02  9.34106E-03 -3.08810E-03  9.83829E-03  -18.2936
     94    8  8.53984E-01  2.46840E-01  2.47665E+00  3.64703E-02  1.42817E-02 -4.59800E-03  1.50036E-02  -17.8460
     95    8  8.90455E-01  2.46840E-01  2.47665E+00  3.64703E-02  1.83196E-02 -5.71758E-03  1.91911E-02  -17.3332
     96    8  9.26925E-01  2.46840E-01  2.47665E+00  3.64703E-02  2.13320E-02 -6.41223E-03  2.22749E-02  -16.7304
     97    8  9.63395E-01  2.46840E-01  2.47665E+00  3.64703E-02  2.32004E-02 -6.64419E-03  2.41330E-02  -15.9808
     98    8  9.99865E-01  2.46840E-01  2.47665E+00  3.64703E-02  2.38444E-02 -6.33403E-03  2.46714E-02  -14.8765
     99    8  1.03634E+00  2.46840E-01  2.47665E+00  3.64703E-02  2.32344E-02 -6.12082E-03  2.40271E-02  -14.7585
    100    8  1.07281E+00  2.46840E-01  2.47665E+00  3.64703E-02  2.13949E-02 -6.01406E-03  2.22241E-02  -15.7006
    101    8  1.10928E+00  2.46840E-01  2.47665E+00  3.64703E-02  1.84011E-02 -5.39261E-03  1.91750E-02  -16.3337
    102    8  1.14575E+00  2.46840E-01  2.47665E+00  3.64703E-02  1.43671E-02 -4.34983E-03  1.50112E-02  -16.8444
    103    8  1.18222E+00  2.46840E-01  2.47665E+00  3.64703E-02  9.41132E-03 -2.92646E-03  9.85581E-03  -17.2731
    104    8  1.21869E+00  2.46840E-01  2.47665E+00  3.64703E-02  3.35828E-03 -1.06192E-03  3.52217E-03  -17.5474
    105    9  7.97047E-01  5.32480E-01  2.47665E+00  3.38031E-02 -2.22599E-03 -3.35902E-04  2.25119E-03 -171.4188
    106    9  8.30850E-01  5.32480E-01  2.47665E+00  3.38031E-02 -6.19779E-03 -9.38621E-04  6.26846E-03 -171.3883
    107    9  8.64653E-01  5.32480E-01  2.47665E+00  3.38031E-02 -9.38869E-03 -1.42903E-03  9.49682E-03 -171.3456
    108    9  8.98456E-01  5.32480E-01  2.47665E+00  3.38031E-02 -1.19563E-02 -1.82890E-03  1.20954E-02 -171.3032
    109    9  9.32259E-01  5.32480E-01  2.47665E+00  3.38031E-02 -1.38473E-02 -2.12859E-03  1.40100E-02 -171.2610
    110    9  9.66062E-01  5.32480E-01  2.47665E+00  3.38031E-02 -1.50048E-02 -2.31785E-03  1.51827E-02 -171.2187
    111    9  9.99865E-01  5.32480E-01  2.47665E+00  3.38031E-02 -1.53898E-02 -2.38910E-03  1.55741E-02 -171.1758
    112    9  1.03367E+00  5.32480E-01  2.47665E+00  3.38031E-02 -1.49894E-02 -2.33862E-03  1.51708E-02 -171.1323
    113    9  1.06747E+00  5.32480E-01  2.47665E+00  3.38031E-02 -1.38188E-02 -2.16695E-03  1.39877E-02 -171.0879
    114    9  1.10127E+00  5.32480E-01  2.47665E+00  3.38031E-02 -1.19188E-02 -1.87863E-03  1.20659E-02 -171.0428
    115    9  1.13508E+00  5.32480E-01  2.47665E+00  3.38031E-02 -9.34852E-03 -1.48112E-03  9.46512E-03 -170.9973
    116    9  1.16888E+00  5.32480E-01  2.47665E+00  3.38031E-02 -6.16389E-03 -9.81481E-04  6.24155E-03 -170.9527
    117    9  1.20268E+00  5.32480E-01  2.47665E+00  3.38031E-02 -2.21188E-03 -3.53418E-04  2.23994E-03 -170.9219
    118   10  7.98723E-01  9.33532E-01  2.47665E+00  3.35237E-02  1.40145E-03  1.00497E-03  1.72454E-03   35.6441
    119   10  8.32247E-01  9.33532E-01  2.47665E+00  3.35237E-02  3.89181E-03  2.79648E-03  4.79234E-03   35.6993
    120   10  8.65771E-01  9.33532E-01  2.47665E+00  3.35237E-02  5.87524E-03  4.23346E-03  7.24159E-03   35.7750
    121   10  8.99294E-01  9.33532E-01  2.47665E+00  3.35237E-02  7.45947E-03  5.38915E-03  9.20254E-03   35.8465
    122   10  9.32818E-01  9.33532E-01  2.47665E+00  3.35237E-02  8.61715E-03  6.24064E-03  1.06396E-02   35.9125
    123   10  9.66342E-01  9.33532E-01  2.47665E+00  3.35237E-02  9.31772E-03  6.76302E-03  1.15134E-02   35.9730
    124   10  9.99865E-01  9.33532E-01  2.47665E+00  3.35237E-02  9.54088E-03  6.93909E-03  1.17974E-02   36.0284
    125   10  1.03339E+00  9.33532E-01  2.47665E+00  3.35237E-02  9.28123E-03  6.76276E-03  1.14837E-02   36.0789
    126   10  1.06691E+00  9.33532E-01  2.47665E+00  3.35237E-02  8.54947E-03  6.24005E-03  1.05845E-02   36.1248
    127   10  1.10044E+00  9.33532E-01  2.47665E+00  3.35237E-02  7.37112E-03  5.38818E-03  9.13049E-03   36.1663
    128   10  1.13396E+00  9.33532E-01  2.47665E+00  3.35237E-02  5.78177E-03  4.23216E-03  7.16520E-03   36.2035
    129   10  1.16748E+00  9.33532E-01  2.47665E+00  3.35237E-02  3.81395E-03  2.79510E-03  4.72851E-03   36.2362
    130   10  1.20101E+00  9.33532E-01  2.47665E+00  3.35237E-02  1.36934E-03  1.00431E-03  1.69816E-03   36.2573
    131   11  7.98114E-01  1.25286E+00  2.47665E+00  3.36253E-02 -6.65757E-04 -1.39150E-03  1.54256E-03 -115.5686
    132   11  8.31739E-01  1.25286E+00  2.47665E+00  3.36253E-02 -1.85176E-03 -3.86653E-03  4.28708E-03 -115.5908
    133   11  8.65364E-01  1.25286E+00  2.47665E+00  3.36253E-02 -2.80140E-03 -5.84169E-03  6.47867E-03 -115.6202
    134   11  8.98989E-01  1.25286E+00  2.47665E+00  3.36253E-02 -3.56340E-03 -7.42201E-03  8.23310E-03 -115.6462
    135   11  9.32615E-01  1.25286E+00  2.47665E+00  3.36253E-02 -4.12287E-03 -8.57896E-03  9.51823E-03 -115.6680
    136   11  9.66240E-01  1.25286E+00  2.47665E+00  3.36253E-02 -4.46373E-03 -9.28107E-03  1.02987E-02 -115.6852
    137   11  9.99865E-01  1.25286E+00  2.47665E+00  3.36253E-02 -4.57512E-03 -9.50728E-03  1.05508E-02 -115.6979
    138   11  1.03349E+00  1.25286E+00  2.47665E+00  3.36253E-02 -4.45369E-03 -9.25160E-03  1.02678E-02 -115.7060
    139   11  1.06712E+00  1.25286E+00  2.47665E+00  3.36253E-02 -4.10422E-03 -8.52427E-03  9.46085E-03 -115.7096
    140   11  1.10074E+00  1.25286E+00  2.47665E+00  3.36253E-02 -3.53900E-03 -7.35054E-03  8.15812E-03 -115.7090
    141   11  1.13437E+00  1.25286E+00  2.47665E+00  3.36253E-02 -2.77554E-03 -5.76599E-03  6.39924E-03 -115.7045
    142   11  1.16799E+00  1.25286E+00  2.47665E+00  3.36253E-02 -1.83016E-03 -3.80334E-03  4.22077E-03 -115.6968
    143   11  1.20162E+00  1.25286E+00  2.47665E+00  3.36253E-02 -6.56832E-04 -1.36541E-03  1.51518E-03 -115.6900
    144   12  8.18079E-01  1.66959E+00  2.47665E+00  3.02977E-02 -1.32792E-04  6.59925E-04  6.73152E-04  101.3773
    145   12  8.48377E-01  1.66959E+00  2.47665E+00  3.02977E-02 -3.64711E-04  1.81896E-03  1.85516E-03  101.3378
    146   12  8.78675E-01  1.66959E+00  2.47665E+00  3.02977E-02 -5.42959E-04  2.72150E-03  2.77513E-03  101.2828
    147   12  9.08972E-01  1.66959E+00  2.47665E+00  3.02977E-02 -6.81499E-04  3.43227E-03  3.49927E-03  101.2304
    148   12  9.39270E-01  1.66959E+00  2.47665E+00  3.02977E-02 -7.80058E-04  3.94627E-03  4.02263E-03  101.1815
    149   12  9.69568E-01  1.66959E+00  2.47665E+00  3.02977E-02 -8.37574E-04  4.25488E-03  4.33654E-03  101.1363
    150   12  9.99865E-01  1.66959E+00  2.47665E+00  3.02977E-02 -8.53429E-04  4.35210E-03  4.43499E-03  101.0947
    151   12  1.03016E+00  1.66959E+00  2.47665E+00  3.02977E-02 -8.27845E-04  4.23661E-03  4.31673E-03  101.0564
    152   12  1.06046E+00  1.66959E+00  2.47665E+00  3.02977E-02 -7.61980E-04  3.91229E-03  3.98580E-03  101.0213
    153   12  1.09076E+00  1.66959E+00  2.47665E+00  3.02977E-02 -6.57820E-04  3.38771E-03  3.45099E-03  100.9888
    154   12  1.12106E+00  1.66959E+00  2.47665E+00  3.02977E-02 -5.17789E-04  2.67405E-03  2.72372E-03  100.9588
    155   12  1.15135E+00  1.66959E+00  2.47665E+00  3.02977E-02 -3.43599E-04  1.77907E-03  1.81195E-03  100.9312
    156   12  1.18165E+00  1.66959E+00  2.47665E+00  3.02977E-02 -1.24040E-04  6.43363E-04  6.55211E-04  100.9127



                                        - - - POWER BUDGET - - -

                                           INPUT POWER   = 2.3852E-02 WATTS
                                           RADIATED POWER= 2.3852E-02 WATTS
                                           WIRE LOSS     = 0.0000E+00 WATTS
                                           EFFICIENCY    = 100.00 PERCENT



                                                - - - RADIATION PATTERNS - - -

  - - ANGLES - -          - POWER GAINS -        - - - POLARIZATION - - -    - - - E(THETA) - - -    - - - E(PHI) - - -
  THETA     PHI        VERT.   HOR.    TOTAL      AXIAL     TILT   SENSE     MAGNITUDE    PHASE      MAGNITUDE    PHASE 
 DEGREES  DEGREES       DB      DB      DB        RATIO     DEG.               VOLTS     DEGREES       VOLTS     DEGREES
    0.00     0.00      -9.52 -999.99   -9.52    0.00000     0.00  LINEAR    3.99823E-01    84.30    0.00000E+00     0.00
    1.00     0.00      -9.51 -999.99   -9.51    0.00000     0.00  LINEAR    4.00022E-01    87.08    0.00000E+00     0.00
    2.00     0.00      -9.49 -999.99   -9.49    0.00000     0.00  LINEAR    4.00928E-01    89.14    0.00000E+00     0.00
    3.00     0.00      -9.45 -999.99   -9.45    0.00000     0.00  LINEAR    4.02723E-01    90.50    0.00000E+00     0.00
    4.00     0.00      -9.39 -999.99   -9.39    0.00000     0.00  LINEAR    4.05675E-01    91.24    0.00000E+00     0.00
    5.00     0.00      -9.30 -999.99   -9.30    0.00000     0.00  LINEAR    4.10078E-01    91.44    0.00000E+00     0.00
    6.00     0.00      -9.17 -999.99   -9.17    0.00000     0.00  LINEAR    4.16184E-01    91.19    0.00000E+00     0.00
    7.00     0.00      -9.00 -999.99   -9.00    0.00000     0.00  LINEAR    4.24127E-01    90.62    0.00000E+00     0.00
    8.00     0.00      -8.81 -999.99   -8.81    0.00000     0.00  LINEAR    4.33864E-01    89.87    0.00000E+00     0.00
    9.00     0.00      -8.58 -999.99   -8.58    0.00000     0.00  LINEAR    4.45131E-01    89.04    0.00000E+00     0.00
   10.00     0.00      -8.35 -999.99   -8.35    0.00000     0.00  LINEAR    4.57435E-01    88.24    0.00000E+00     0.00
   11.00     0.00      -8.11 -999.99   -8.11    0.00000     0.00  LINEAR    4.70071E-01    87.56    0.00000E+00     0.00
   12.00     0.00      -7.89 -999.99   -7.89    0.00000     0.00  LINEAR    4.82167E-01    87.05    0.00000E+00     0.00
   13.00     0.00      -7.70 -999.99   -7.70    0.00000     0.00  LINEAR    4.92738E-01    86.74    0.00000E+00     0.00
   14.00     0.00      -7.56 -999.99   -7.56    0.00000     0.00  LINEAR    5.00746E-01    86.63    0.00000E+00     0.00
   15.00     0.00      -7.49 -999.99   -7.49    0.00000     0.00  LINEAR    5.05166E-01    86.72    0.00000E+00     0.00
   16.00     0.00      -7.49 -999.99   -7.49    0.00000     0.00  LINEAR    5.05039E-01    87.00    0.00000E+00     0.00
   17.00     0.00      -7.58 -999.99   -7.58    0.00000     0.00  LINEAR    4.99526E-01    87.45    0.00000E+00     0.00
   18.00     0.00      -7.79 -999.99   -7.79    0.00000     0.00  LINEAR    4.87964E-01    88.03    0.00000E+00     0.00
   19.00     0.00      -8.11 -999.99   -8.11    0.00000     0.00  LINEAR    4.69902E-01    88.71    0.00000E+00     0.00
   20.00     0.00      -8.58 -999.99   -8.58    0.00000     0.00  LINEAR    4.45149E-01    89.48    0.00000E+00     0.00
   21.00     0.00      -9.22 -999.99   -9.22    0.00000     0.00  LINEAR    4.13799E-01    90.30    0.00000E+00     0.00
   22.00     0.00     -10.04 -999.99  -10.04    0.00000     0.00  LINEAR    3.76255E-01    91.13    0.00000E+00     0.00
   23.00     0.00     -11.10 -999.99  -11.10    0.00000     0.00  LINEAR    3.33243E-01    91.95    0.00000E+00     0.00
   24.00     0.00     -12.43 -999.99  -12.43    0.00000     0.00  LINEAR    2.85803E-01    92.71    0.00000E+00     0.00
   25.00     0.00     -14.12 -999.99  -14.12    0.00000     0.00  LINEAR    2.35275E-01    93.38    0.00000E+00     0.00
   26.00     0.00     -16.29 -999.99  -16.29    0.00000     0.00  LINEAR    1.83255E-01    93.90    0.00000E+00     0.00
   27.00     0.00     -19.17 -999.99  -19.17    0.00000     0.00  LINEAR    1.31537E-01    94.22    0.00000E+00     0.00
   28.00     0.00     -23.27 -999.99  -23.27    0.00000     0.00  LINEAR    8.20363E-02    94.25    0.00000E+00     0.00
   29.00     0.00     -30.26 -999.99  -30.26    0.00000     0.00  LINEAR    3.66841E-02    93.98    0.00000E+00     0.00
   30.00     0.00     -52.89 -999.99  -52.89    0.00000     0.00  LINEAR    2.71098E-03   -92.03    0.00000E+00     0.00
   31.00     0.00     -30.78 -999.99  -30.78    0.00000     0.00  LINEAR    3.45769E-02   -89.80    0.00000E+00     0.00
   32.00     0.00     -26.30 -999.99  -26.30    0.00000     0.00  LINEAR    5.78833E-02   -93.03    0.00000E+00     0.00
   33.00     0.00     -24.36 -999.99  -24.36    0.00000     0.00  LINEAR    7.23842E-02   -98.52    0.00000E+00     0.00
   34.00     0.00     -23.58 -999.99  -23.58    0.00000     0.00  LINEAR    7.92253E-02  -107.44    0.00000E+00     0.00
   35.00     0.00     -23.29 -999.99  -23.29    0.00000     0.00  LINEAR    8.19287E-02  -121.38    0.00000E+00     0.00
   36.00     0.00     -22.73 -999.99  -22.73    0.00000     0.00  LINEAR    8.73360E-02  -140.71    0.00000E+00     0.00
   37.00     0.00     -21.26 -999.99  -21.26    0.00000     0.00  LINEAR    1.03473E-01  -161.55    0.00000E+00     0.00
   38.00     0.00     -19.05 -999.99  -19.05    0.00000     0.00  LINEAR    1.33452E-01  -178.41    0.00000E+00     0.00
   39.00     0.00     -16.72 -999.99  -16.72    0.00000     0.00  LINEAR    1.74420E-01   170.08    0.00000E+00     0.00
   40.00     0.00     -14.64 -999.99  -14.64    0.00000     0.00  LINEAR    2.21607E-01   162.50    0.00000E+00     0.00
   41.00     0.00     -12.91 -999.99  -12.91    0.00000     0.00  LINEAR    2.70393E-01   157.37    0.00000E+00     0.00
   42.00     0.00     -11.54 -999.99  -11.54    0.00000     0.00  LINEAR    3.16576E-01   153.67    0.00000E+00     0.00
   43.00     0.00     -10.52 -999.99  -10.52    0.00000     0.00  LINEAR    3.56374E-01   150.77    0.00000E+00     0.00
   44.00     0.00      -9.81 -999.99   -9.81    0.00000     0.00  LINEAR    3.86514E-01   148.25    0.00000E+00     0.00
   45.00     0.00      -9.42 -999.99   -9.42    0.00000     0.00  LINEAR    4.04392E-01   145.78    0.00000E+00     0.00
   46.00     0.00      -9.33 -999.99   -9.33    0.00000     0.00  LINEAR    4.08278E-01   143.07    0.00000E+00     0.00
   47.00     0.00      -9.57 -999.99   -9.57    0.00000     0.00  LINEAR    3.97538E-01   139.78    0.00000E+00     0.00
   48.00     0.00     -10.12 -999.99  -10.12    0.00000     0.00  LINEAR    3.72874E-01   135.48    0.00000E+00     0.00
   49.00     0.00     -11.01 -999.99  -11.01    0.00000     0.00  LINEAR    3.36645E-01   129.50    0.00000E+00     0.00
   50.00     0.00     -12.21 -999.99  -12.21    0.00000     0.00  LINEAR    2.93391E-01   120.82    0.00000E+00     0.00
   51.00     0.00     -13.57 -999.99  -13.57    0.00000     0.00  LINEAR    2.50714E-01   107.94    0.00000E+00     0.00
   52.00     0.00     -14.71 -999.99  -14.71    0.00000     0.00  LINEAR    2.19986E-01    89.60    0.00000E+00     0.00
   53.00     0.00     -14.98 -999.99  -14.98    0.00000     0.00  LINEAR    2.13153E-01    67.43    0.00000E+00     0.00
   54.00     0.00     -14.23 -999.99  -14.23    0.00000     0.00  LINEAR    2.32504E-01    46.83    0.00000E+00     0.00
   55.00     0.00     -13.00 -999.99  -13.00    0.00000     0.00  LINEAR    2.67670E-01    31.20    0.00000E+00     0.00
   56.00     0.00     -11.84 -999.99  -11.84    0.00000     0.00  LINEAR    3.05833E-01    20.00    0.00000E+00     0.00
   57.00     0.00     -10.98 -999.99  -10.98    0.00000     0.00  LINEAR    3.37909E-01    11.60    0.00000E+00     0.00
   58.00     0.00     -10.46 -999.99  -10.46    0.00000     0.00  LINEAR    3.58588E-01     4.69    0.00000E+00     0.00
   59.00     0.00     -10.30 -999.99  -10.30    0.00000     0.00  LINEAR    3.65364E-01    -1.63    0.00000E+00     0.00
   60.00     0.00     -10.48 -999.99  -10.48    0.00000     0.00  LINEAR    3.57948E-01    -8.05    0.00000E+00     0.00
   61.00     0.00     -10.98 -999.99  -10.98    0.00000     0.00  LINEAR    3.37966E-01   -15.19    0.00000E+00     0.00
   62.00     0.00     -11.76 -999.99  -11.76    0.00000     0.00  LINEAR    3.08774E-01   -23.70    0.00000E+00     0.00
   63.00     0.00     -12.76 -999.99  -12.76    0.00000     0.00  LINEAR    2.75252E-01   -34.30    0.00000E+00     0.00
   64.00     0.00     -13.83 -999.99  -13.83    0.00000     0.00  LINEAR    2.43399E-01   -47.62    0.00000E+00     0.00
   65.00     0.00     -14.74 -999.99  -14.74    0.00000     0.00  LINEAR    2.19201E-01   -63.72    0.00000E+00     0.00
   66.00     0.00     -15.26 -999.99  -15.26    0.00000     0.00  LINEAR    2.06283E-01   -81.44    0.00000E+00     0.00
   67.00     0.00     -15.38 -999.99  -15.38    0.00000     0.00  LINEAR    2.03572E-01   -98.75    0.00000E+00     0.00
   68.00     0.00     -15.28 -999.99  -15.28    0.00000     0.00  LINEAR    2.06001E-01  -114.20    0.00000E+00     0.00
   69.00     0.00     -15.20 -999.99  -15.20    0.00000     0.00  LINEAR    2.07900E-01  -127.71    0.00000E+00     0.00
   70.00     0.00     -15.30 -999.99  -15.30    0.00000     0.00  LINEAR    2.05545E-01  -140.00    0.00000E+00     0.00
   71.00     0.00     -15.63 -999.99  -15.63    0.00000     0.00  LINEAR    1.97820E-01  -152.03    0.00000E+00     0.00
   72.00     0.00     -16.17 -999.99  -16.17    0.00000     0.00  LINEAR    1.85922E-01  -164.72    0.00000E+00     0.00
   73.00     0.00     -16.81 -999.99  -16.81    0.00000     0.00  LINEAR    1.72682E-01  -178.71    0.00000E+00     0.00
   74.00     0.00     -17.39 -999.99  -17.39    0.00000     0.00  LINEAR    1.61462E-01   165.90    0.00000E+00     0.00
   75.00     0.00     -17.77 -999.99  -17.77    0.00000     0.00  LINEAR    1.54513E-01   149.92    0.00000E+00     0.00
   76.00     0.00     -17.94 -999.99  -17.94    0.00000     0.00  LINEAR    1.51528E-01   134.74    0.00000E+00     0.00
   77.00     0.00     -18.05 -999.99  -18.05    0.00000     0.00  LINEAR    1.49753E-01   121.43    0.00000E+00     0.00
   78.00     0.00     -18.29 -999.99  -18.29    0.00000     0.00  LINEAR    1.45632E-01   110.26    0.00000E+00     0.00
   79.00     0.00     -18.86 -999.99  -18.86    0.00000     0.00  LINEAR    1.36431E-01   100.82    0.00000E+00     0.00
   80.00     0.00     -19.90 -999.99  -19.90    0.00000     0.00  LINEAR    1.20990E-01    92.36    0.00000E+00     0.00
   81.00     0.00     -21.57 -999.99  -21.57    0.00000     0.00  LINEAR    9.98321E-02    83.86    0.00000E+00     0.00
   82.00     0.00     -24.05 -999.99  -24.05    0.00000     0.00  LINEAR    7.50351E-02    73.59    0.00000E+00     0.00
   83.00     0.00     -27.53 -999.99  -27.53    0.00000     0.00  LINEAR    5.02854E-02    57.60    0.00000E+00     0.00
   84.00     0.00     -31.45 -999.99  -31.45    0.00000     0.00  LINEAR    3.19913E-02    26.57    0.00000E+00     0.00
   85.00     0.00     -32.42 -999.99  -32.42    0.00000     0.00  LINEAR    2.86181E-02   -18.51    0.00000E+00     0.00
   86.00     0.00     -30.85 -999.99  -30.85    0.00000     0.00  LINEAR    3.43025E-02   -46.79    0.00000E+00     0.00
   87.00     0.00     -30.25 -999.99  -30.25    0.00000     0.00  LINEAR    3.67270E-02   -59.75    0.00000E+00     0.00
   88.00     0.00     -31.57 -999.99  -31.57    0.00000     0.00  LINEAR    3.15597E-02   -66.10    0.00000E+00     0.00
   89.00     0.00     -36.14 -999.99  -36.14    0.00000     0.00  LINEAR    1.86545E-02   -69.19    0.00000E+00     0.00
    0.00     1.00      -9.52  -44.68   -9.52    0.00000    -1.00  LINEAR    3.99762E-01    84.30    6.97787E-03   -95.70
    1.00     1.00      -9.51  -44.67   -9.51    0.00000    -1.00  LINEAR    4.00165E-01    87.07    6.98484E-03   -92.94
    2.00     1.00      -9.49  -44.65   -9.48    0.00001    -1.00  LINEAR    4.01275E-01    89.12    7.00415E-03   -90.91
    3.00     1.00      -9.44  -44.60   -9.44    0.00002    -1.00  LEFT      4.03279E-01    90.47    7.03938E-03   -89.59
    4.00     1.00      -9.37  -44.53   -9.37    0.00003    -1.00  LEFT      4.06444E-01    91.20    7.09584E-03   -88.91
    5.00     1.00      -9.28  -44.43   -9.27    0.00006    -1.00  LEFT      4.11068E-01    91.38    7.17960E-03   -88.80
    6.00     1.00      -9.14  -44.29   -9.14    0.00008    -1.00  LEFT      4.17405E-01    91.12    7.29627E-03   -89.15
    7.00     1.00      -8.97  -44.11   -8.97    0.00012    -1.00  LEFT      4.25593E-01    90.55    7.44963E-03   -89.84
    8.00     1.00      -8.77  -43.89   -8.77    0.00016    -1.00  LEFT      4.35591E-01    89.78    7.64041E-03   -90.74
    9.00     1.00      -8.55  -43.64   -8.54    0.00020    -1.01  LEFT      4.47136E-01    88.94    7.86539E-03   -91.71
   10.00     1.00      -8.30  -43.37   -8.30    0.00024    -1.01  LEFT      4.59735E-01    88.13    8.11705E-03   -92.65
   11.00     1.00      -8.06  -43.09   -8.06    0.00028    -1.02  LEFT      4.72682E-01    87.44    8.38374E-03   -93.47
   12.00     1.00      -7.84  -42.81   -7.84    0.00032    -1.02  LEFT      4.85100E-01    86.92    8.65028E-03   -94.10
   13.00     1.00      -7.64  -42.57   -7.64    0.00035    -1.03  LEFT      4.95995E-01    86.59    8.89886E-03   -94.52
   14.00     1.00      -7.50  -42.36   -7.50    0.00037    -1.03  LEFT      5.04322E-01    86.47    9.11009E-03   -94.71
   15.00     1.00      -7.42  -42.22   -7.42    0.00039    -1.04  LEFT      5.09042E-01    86.55    9.26400E-03   -94.68
   16.00     1.00      -7.42  -42.15   -7.42    0.00040    -1.05  LEFT      5.09183E-01    86.82    9.34108E-03   -94.43
   17.00     1.00      -7.51  -42.16   -7.51    0.00040    -1.06  LEFT      5.03893E-01    87.25    9.32328E-03   -93.99
   18.00     1.00      -7.71  -42.28   -7.70    0.00039    -1.07  LEFT      4.92492E-01    87.82    9.19496E-03   -93.38
   19.00     1.00      -8.03  -42.52   -8.03    0.00037    -1.08  LEFT      4.74519E-01    88.50    8.94381E-03   -92.64
   20.00     1.00      -8.49  -42.90   -8.49    0.00034    -1.09  LEFT      4.49767E-01    89.25    8.56173E-03   -91.78
   21.00     1.00      -9.12  -43.44   -9.12    0.00030    -1.10  LEFT      4.18323E-01    90.05    8.04568E-03   -90.83
   22.00     1.00      -9.94  -44.17   -9.94    0.00024    -1.11  LEFT      3.80585E-01    90.87    7.39836E-03   -89.83
   23.00     1.00     -10.99  -45.13  -10.99    0.00016    -1.13  LEFT      3.37277E-01    91.68    6.62885E-03   -88.80
   24.00     1.00     -12.32  -46.36  -12.32    0.00007    -1.14  LEFT      2.89444E-01    92.43    5.75294E-03   -87.76
   25.00     1.00     -14.01  -47.94  -14.00    0.00006    -1.15  RIGHT     2.38434E-01    93.08    4.79326E-03   -86.76
   26.00     1.00     -16.17  -50.01  -16.17    0.00021    -1.16  RIGHT     1.85861E-01    93.59    3.77905E-03   -85.83
   27.00     1.00     -19.04  -52.78  -19.04    0.00040    -1.18  RIGHT     1.33541E-01    93.88    2.74559E-03   -85.01
   28.00     1.00     -23.13  -56.78  -23.13    0.00063    -1.19  RIGHT     8.34156E-02    93.89    1.73311E-03   -84.36
   29.00     1.00     -30.09  -63.65  -30.08    0.00093    -1.20  RIGHT     3.74472E-02    93.58    7.85259E-04   -83.89
   30.00     1.00     -53.52  -87.03  -53.52    0.00129    -1.21  RIGHT     2.52032E-03   -92.00    5.32167E-05    91.51
   31.00     1.00     -30.70  -64.19  -30.70    0.00174    -1.21  RIGHT     3.48886E-02   -90.12    7.38576E-04    94.61
   32.00     1.00     -26.20  -59.73  -26.19    0.00228    -1.20  RIGHT     5.85943E-02   -93.39    1.23355E-03    92.85
   33.00     1.00     -24.24  -57.96  -24.24    0.00286    -1.17  RIGHT     7.33761E-02   -98.89    1.51236E-03    89.09
   34.00     1.00     -23.45  -57.61  -23.45    0.00325    -1.11  RIGHT     8.03846E-02  -107.83    1.57436E-03    81.73
   35.00     1.00     -23.15  -58.16  -23.15    0.00277    -1.01  RIGHT     8.31867E-02  -121.78    1.47828E-03    67.20
   36.00     1.00     -22.59  -58.45  -22.59    0.00053    -0.92  RIGHT     8.87310E-02  -141.13    1.42957E-03    40.74
   37.00     1.00     -21.12  -56.49  -21.11    0.00258    -0.96  LEFT      1.05183E-01  -161.99    1.79053E-03     9.28
   38.00     1.00     -18.90  -53.01  -18.90    0.00433    -1.10  LEFT      1.35725E-01  -178.86    2.67570E-03   -11.56
   39.00     1.00     -16.57  -49.68  -16.57    0.00460    -1.24  LEFT      1.77474E-01   169.61    3.92413E-03   -22.42
   40.00     1.00     -14.49  -46.93  -14.49    0.00419    -1.35  LEFT      2.25588E-01   162.02    5.38511E-03   -28.10
   41.00     1.00     -12.76  -44.73  -12.75    0.00353    -1.43  LEFT      2.75368E-01   156.87    6.94047E-03   -31.19
   42.00     1.00     -11.38  -42.99  -11.38    0.00277    -1.50  LEFT      3.22533E-01   153.16    8.47952E-03   -32.90
   43.00     1.00     -10.35  -41.65  -10.35    0.00194    -1.56  LEFT      3.63223E-01   150.25    9.89090E-03   -33.84
   44.00     1.00      -9.64  -40.68   -9.64    0.00101    -1.61  LEFT      3.94092E-01   147.71    1.10636E-02   -34.36
   45.00     1.00      -9.25  -40.05   -9.24    0.00005    -1.65  RIGHT     4.12473E-01   145.23    1.18913E-02   -34.67
   46.00     1.00      -9.16  -39.77   -9.16    0.00130    -1.69  RIGHT     4.16586E-01   142.51    1.22796E-02   -34.97
   47.00     1.00      -9.39  -39.86   -9.38    0.00279    -1.71  RIGHT     4.05768E-01   139.20    1.21525E-02   -35.44
   48.00     1.00      -9.94  -40.37   -9.94    0.00459    -1.70  RIGHT     3.80721E-01   134.89    1.14614E-02   -36.33
   49.00     1.00     -10.83  -41.39  -10.82    0.00667    -1.65  RIGHT     3.43842E-01   128.90    1.01936E-02   -38.09
   50.00     1.00     -12.02  -43.08  -12.02    0.00872    -1.52  RIGHT     2.99759E-01   120.20    8.38667E-03   -41.63
   51.00     1.00     -13.38  -45.75  -13.38    0.00946    -1.27  RIGHT     2.56234E-01   107.30    6.16565E-03   -49.53
   52.00     1.00     -14.51  -49.69  -14.51    0.00607    -0.94  RIGHT     2.24897E-01    88.95    3.92123E-03   -70.67
   53.00     1.00     -14.79  -51.51  -14.78    0.00248    -0.82  LEFT      2.17974E-01    66.77    3.17679E-03  -123.04
   54.00     1.00     -14.03  -47.23  -14.03    0.01020    -1.11  LEFT      2.37830E-01    46.16    5.20517E-03  -161.64
   55.00     1.00     -12.80  -43.30  -12.80    0.01295    -1.54  LEFT      2.73875E-01    30.52    8.17943E-03  -175.19
   56.00     1.00     -11.64  -40.59  -11.64    0.01225    -1.92  LEFT      3.13005E-01    19.31    1.11705E-02   179.21
   57.00     1.00     -10.77  -38.74  -10.77    0.00993    -2.22  LEFT      3.45921E-01    10.89    1.38224E-02   176.47
   58.00     1.00     -10.26  -37.53  -10.25    0.00674    -2.45  LEFT      3.67180E-01     3.97    1.58992E-02   175.00
   59.00     1.00     -10.09  -36.83  -10.08    0.00282    -2.63  LEFT      3.74206E-01    -2.37    1.72177E-02   174.11
   60.00     1.00     -10.27  -36.62  -10.26    0.00190    -2.75  RIGHT     3.66694E-01    -8.80    1.76430E-02   173.47
   61.00     1.00     -10.76  -36.90  -10.75    0.00751    -2.79  RIGHT     3.46300E-01   -15.95    1.70950E-02   172.82
   62.00     1.00     -11.55  -37.72  -11.54    0.01381    -2.70  RIGHT     3.16454E-01   -24.47    1.55567E-02   171.89
   63.00     1.00     -12.54  -39.22  -12.53    0.01978    -2.40  RIGHT     2.82156E-01   -35.08    1.30822E-02   170.22
   64.00     1.00     -13.61  -41.72  -13.60    0.02258    -1.84  RIGHT     2.49552E-01   -48.41    9.80758E-03   166.69
   65.00     1.00     -14.52  -45.99  -14.52    0.01776    -1.14  RIGHT     2.24784E-01   -64.52    6.00256E-03   157.17
   66.00     1.00     -15.04  -52.98  -15.04    0.00352    -0.70  RIGHT     2.11574E-01   -82.25    2.68468E-03   113.86
   67.00     1.00     -15.16  -48.68  -15.16    0.01453    -0.87  LEFT      2.08829E-01   -99.57    4.40209E-03    36.83
   68.00     1.00     -15.05  -42.97  -15.05    0.02854    -1.62  LEFT      2.11356E-01  -115.03    8.49781E-03    19.71
   69.00     1.00     -14.97  -39.66  -14.96    0.03500    -2.67  LEFT      2.13337E-01  -128.55    1.24379E-02    14.46
   70.00     1.00     -15.07  -37.62  -15.05    0.03367    -3.81  LEFT      2.10951E-01  -140.85    1.57265E-02    12.17
   71.00     1.00     -15.40  -36.41  -15.37    0.02452    -4.89  LEFT      2.03051E-01  -152.89    1.80754E-02    11.00
   72.00     1.00     -15.94  -35.85  -15.90    0.00718    -5.75  LEFT      1.90863E-01  -165.58    1.92818E-02    10.30
   73.00     1.00     -16.58  -35.88  -16.53    0.01747    -6.11  RIGHT     1.77294E-01  -179.59    1.92251E-02     9.79
   74.00     1.00     -17.16  -36.51  -17.11    0.04385    -5.62  RIGHT     1.65793E-01   165.02    1.78737E-02     9.26
   75.00     1.00     -17.54  -37.87  -17.50    0.06089    -4.27  RIGHT     1.58675E-01   149.03    1.52893E-02     8.48
   76.00     1.00     -17.71  -40.24  -17.69    0.05963    -2.58  RIGHT     1.55625E-01   133.84    1.16285E-02     6.94
   77.00     1.00     -17.81  -44.47  -17.80    0.04113    -1.24  RIGHT     1.53816E-01   120.53    7.14582E-03     2.87
   78.00     1.00     -18.06  -54.12  -18.05    0.01203    -0.58  RIGHT     1.49596E-01   109.36    2.35295E-03   -20.73
   79.00     1.00     -18.62  -50.44  -18.62    0.02311    -0.64  LEFT      1.40156E-01    99.91    3.59642E-03  -144.36
   80.00     1.00     -19.66  -42.91  -19.64    0.06393    -1.45  LEFT      1.24303E-01    91.44    8.54970E-03  -157.00
   81.00     1.00     -21.33  -39.23  -21.26    0.11311    -3.36  LEFT      1.02572E-01    82.94    1.30721E-02  -160.01
   82.00     1.00     -23.81  -37.08  -23.61    0.17238    -7.51  LEFT      7.70990E-02    72.66    1.67308E-02  -161.22
   83.00     1.00     -27.29  -35.87  -26.73    0.21256   -17.04  LEFT      5.16712E-02    56.67    1.92308E-02  -161.80
   84.00     1.00     -31.22  -35.38  -29.81    0.06052   -31.67  LEFT      3.28744E-02    25.64    2.03666E-02  -162.10
   85.00     1.00     -32.18  -35.52  -30.53    0.30792   -31.86  RIGHT     2.94092E-02   -19.45    2.00323E-02  -162.26
   86.00     1.00     -30.61  -36.34  -29.58    0.44416   -15.22  RIGHT     3.52518E-02   -47.73    1.82296E-02  -162.33
   87.00     1.00     -30.02  -37.99  -29.37    0.38802    -5.44  RIGHT     3.77443E-02   -60.69    1.50697E-02  -162.36
   88.00     1.00     -31.33  -40.91  -30.88    0.33014    -1.98  RIGHT     3.24344E-02   -67.04    1.07658E-02  -162.37
   89.00     1.00     -35.90  -46.56  -35.54    0.29287    -0.72  RIGHT     1.91718E-02   -70.13    5.61984E-03  -162.37
    0.00     2.00      -9.52  -38.66   -9.52    0.00000    -2.00  LINEAR    3.99579E-01    84.30    1.39536E-02   -95.70
    1.00     2.00      -9.51  -38.65   -9.50    0.00000    -2.00  LINEAR    4.00186E-01    87.06    1.39747E-02   -92.95
    2.00     2.00      -9.48  -38.62   -9.47    0.00002    -2.00  LEFT      4.01505E-01    89.09    1.40206E-02   -90.93
    3.00     2.00      -9.43  -38.57   -9.43    0.00004    -2.00  LEFT      4.03722E-01    90.44    1.40985E-02   -89.62
    4.00     2.00      -9.36  -38.50   -9.35    0.00007    -2.00  LEFT      4.07108E-01    91.15    1.42192E-02   -88.96
    5.00     2.00      -9.26  -38.39   -9.25    0.00011    -2.00  LEFT      4.11961E-01    91.32    1.43948E-02   -88.86
    6.00     2.00      -9.12  -38.25   -9.11    0.00017    -2.00  LEFT      4.18541E-01    91.05    1.46367E-02   -89.22
    7.00     2.00      -8.95  -38.06   -8.94    0.00024    -2.01  LEFT      4.26987E-01    90.46    1.49526E-02   -89.93
    8.00     2.00      -8.74  -37.84   -8.73    0.00031    -2.01  LEFT      4.37262E-01    89.68    1.53441E-02   -90.83
    9.00     2.00      -8.51  -37.58   -8.50    0.00040    -2.02  LEFT      4.49106E-01    88.83    1.58049E-02   -91.82
   10.00     2.00      -8.26  -37.30   -8.26    0.00048    -2.02  LEFT      4.62026E-01    88.01    1.63200E-02   -92.77
   11.00     2.00      -8.01  -37.01   -8.01    0.00056    -2.03  LEFT      4.75314E-01    87.30    1.68660E-02   -93.61
   12.00     2.00      -7.78  -36.74   -7.78    0.00064    -2.04  LEFT      4.88088E-01    86.77    1.74124E-02   -94.26
   13.00     2.00      -7.59  -36.49   -7.58    0.00070    -2.06  LEFT      4.99349E-01    86.43    1.79235E-02   -94.69
   14.00     2.00      -7.44  -36.28   -7.43    0.00075    -2.07  LEFT      5.08040E-01    86.29    1.83601E-02   -94.89
   15.00     2.00      -7.35  -36.13   -7.34    0.00078    -2.08  LEFT      5.13111E-01    86.36    1.86818E-02   -94.87
   16.00     2.00      -7.34  -36.05   -7.34    0.00080    -2.10  LEFT      5.13575E-01    86.61    1.88491E-02   -94.64
   17.00     2.00      -7.43  -36.06   -7.42    0.00080    -2.12  LEFT      5.08566E-01    87.03    1.88252E-02   -94.21
   18.00     2.00      -7.62  -36.17   -7.61    0.00078    -2.14  LEFT      4.97386E-01    87.58    1.85783E-02   -93.62
   19.00     2.00      -7.94  -36.41   -7.93    0.00074    -2.16  LEFT      4.79559E-01    88.24    1.80831E-02   -92.89
   20.00     2.00      -8.40  -36.78   -8.39    0.00068    -2.18  LEFT      4.54865E-01    88.98    1.73228E-02   -92.04
   21.00     2.00      -9.02  -37.32   -9.01    0.00059    -2.20  LEFT      4.23376E-01    89.77    1.62907E-02   -91.12
   22.00     2.00      -9.83  -38.04   -9.83    0.00048    -2.23  LEFT      3.85484E-01    90.58    1.49918E-02   -90.13
   23.00     2.00     -10.88  -38.98  -10.87    0.00032    -2.25  LEFT      3.41909E-01    91.36    1.34439E-02   -89.11
   24.00     2.00     -12.20  -40.21  -12.19    0.00013    -2.28  LEFT      2.93697E-01    92.10    1.16785E-02   -88.09
   25.00     2.00     -13.87  -41.78  -13.86    0.00011    -2.30  RIGHT     2.42206E-01    92.73    9.74114E-03   -87.11
   26.00     2.00     -16.02  -43.83  -16.01    0.00041    -2.33  RIGHT     1.89064E-01    93.22    7.69069E-03   -86.20
   27.00     2.00     -18.88  -46.59  -18.87    0.00079    -2.35  RIGHT     1.36109E-01    93.49    5.59848E-03   -85.40
   28.00     2.00     -22.93  -50.56  -22.93    0.00126    -2.38  RIGHT     8.53108E-02    93.48    3.54605E-03   -84.78
   29.00     2.00     -29.81  -57.35  -29.80    0.00185    -2.40  RIGHT     3.86646E-02    93.11    1.62207E-03   -84.36
   30.00     2.00     -55.76  -83.25  -55.75    0.00258    -2.41  RIGHT     1.94795E-03   -92.64    8.22870E-05    90.87
   31.00     2.00     -30.70  -58.16  -30.69    0.00348    -2.42  RIGHT     3.48952E-02   -90.50    1.47788E-03    94.23
   32.00     2.00     -26.13  -53.64  -26.12    0.00456    -2.40  RIGHT     5.90781E-02   -93.81    2.48824E-03    92.42
   33.00     2.00     -24.14  -51.84  -24.14    0.00572    -2.34  RIGHT     7.42138E-02   -99.34    3.06020E-03    88.65
   34.00     2.00     -23.34  -51.47  -23.33    0.00650    -2.21  RIGHT     8.14525E-02  -108.30    3.19152E-03    81.26
   35.00     2.00     -23.03  -52.01  -23.02    0.00554    -2.01  RIGHT     8.44033E-02  -122.27    3.00071E-03    66.71
   36.00     2.00     -22.46  -52.29  -22.45    0.00105    -1.85  RIGHT     9.01235E-02  -141.64    2.90491E-03    40.23
   37.00     2.00     -20.97  -50.33  -20.97    0.00516    -1.93  LEFT      1.06930E-01  -162.52    3.64165E-03     8.76
   38.00     2.00     -18.75  -46.83  -18.74    0.00866    -2.20  LEFT      1.38089E-01  -179.40    5.44626E-03   -12.10
   39.00     2.00     -16.41  -43.50  -16.41    0.00920    -2.48  LEFT      1.80697E-01   169.05    7.99322E-03   -22.97
   40.00     2.00     -14.33  -40.74  -14.32    0.00837    -2.69  LEFT      2.29841E-01   161.44    1.09766E-02   -28.68
   41.00     2.00     -12.59  -38.54  -12.58    0.00706    -2.86  LEFT      2.80739E-01   156.28    1.41560E-02   -31.79
   42.00     2.00     -11.21  -36.79  -11.20    0.00554    -2.99  LEFT      3.29025E-01   152.55    1.73057E-02   -33.51
   43.00     2.00     -10.17  -35.45  -10.16    0.00387    -3.11  LEFT      3.70752E-01   149.62    2.01980E-02   -34.47
   44.00     2.00      -9.46  -34.47   -9.45    0.00202    -3.21  LEFT      4.02488E-01   147.07    2.26054E-02   -35.00
   45.00     2.00      -9.06  -33.84   -9.04    0.00010    -3.30  RIGHT     4.21491E-01   144.57    2.43101E-02   -35.33
   46.00     2.00      -8.97  -33.55   -8.95    0.00259    -3.37  RIGHT     4.25920E-01   141.83    2.51171E-02   -35.65
   47.00     2.00      -9.19  -33.64   -9.18    0.00557    -3.41  RIGHT     4.15074E-01   138.51    2.48701E-02   -36.14
   48.00     2.00      -9.74  -34.14   -9.72    0.00916    -3.41  RIGHT     3.89648E-01   134.18    2.34674E-02   -37.05
   49.00     2.00     -10.62  -35.16  -10.61    0.01332    -3.31  RIGHT     3.52077E-01   128.17    2.08817E-02   -38.81
   50.00     2.00     -11.81  -36.85  -11.80    0.01740    -3.05  RIGHT     3.07084E-01   119.46    1.71885E-02   -42.38
   51.00     2.00     -13.17  -39.52  -13.16    0.01890    -2.54  RIGHT     2.62618E-01   106.54    1.26424E-02   -50.29
   52.00     2.00     -14.30  -43.44  -14.29    0.01213    -1.87  RIGHT     2.30605E-01    88.17    8.04396E-03   -71.45
   53.00     2.00     -14.56  -45.27  -14.56    0.00497    -1.65  LEFT      2.23605E-01    65.98    6.51971E-03  -123.83
   54.00     2.00     -13.80  -40.98  -13.80    0.02039    -2.22  LEFT      2.44079E-01    45.35    1.06871E-02  -162.44
   55.00     2.00     -12.57  -37.05  -12.56    0.02584    -3.08  LEFT      2.81190E-01    29.70    1.68009E-02  -176.01
   56.00     2.00     -11.41  -34.34  -11.39    0.02442    -3.84  LEFT      3.21496E-01    18.47    2.29541E-02   178.37
   57.00     2.00     -10.54  -32.48  -10.51    0.01978    -4.43  LEFT      3.55447E-01    10.04    2.84147E-02   175.62
   58.00     2.00     -10.02  -31.26   -9.98    0.01341    -4.89  LEFT      3.77438E-01     3.10    3.26966E-02   174.13
   59.00     2.00      -9.85  -30.57   -9.81    0.00561    -5.25  LEFT      3.84806E-01    -3.25    3.54216E-02   173.23
   60.00     2.00     -10.02  -30.35   -9.98    0.00377    -5.49  RIGHT     3.77219E-01    -9.70    3.63098E-02   172.57
   61.00     2.00     -10.52  -30.62  -10.47    0.01491    -5.58  RIGHT     3.56366E-01   -16.86    3.51945E-02   171.91
   62.00     2.00     -11.30  -31.44  -11.25    0.02745    -5.39  RIGHT     3.25765E-01   -25.40    3.20386E-02   170.96
   63.00     2.00     -12.29  -32.94  -12.25    0.03936    -4.80  RIGHT     2.90555E-01   -36.02    2.69514E-02   169.28
   64.00     2.00     -13.35  -35.44  -13.33    0.04503    -3.69  RIGHT     2.57063E-01   -49.37    2.02117E-02   165.74
   65.00     2.00     -14.26  -39.70  -14.25    0.03548    -2.29  RIGHT     2.31621E-01   -65.49    1.23741E-02   156.21
   66.00     2.00     -14.78  -46.69  -14.78    0.00704    -1.40  RIGHT     2.18076E-01   -83.23    5.53605E-03   112.88
   67.00     2.00     -14.89  -42.39  -14.89    0.02906    -1.75  LEFT      2.15308E-01  -100.56    9.08012E-03    35.84
   68.00     2.00     -14.79  -36.68  -14.76    0.05695    -3.25  LEFT      2.17974E-01  -116.04    1.75331E-02    18.70
   69.00     2.00     -14.70  -33.37  -14.64    0.06957    -5.35  LEFT      2.20076E-01  -129.57    2.56694E-02    13.44
   70.00     2.00     -14.80  -31.33  -14.70    0.06647    -7.61  LEFT      2.17669E-01  -141.88    3.24647E-02    11.15
   71.00     2.00     -15.13  -30.11  -14.99    0.04801    -9.73  LEFT      2.09569E-01  -153.93    3.73225E-02     9.96
   72.00     2.00     -15.66  -29.55  -15.49    0.01394   -11.40  LEFT      1.97036E-01  -166.63    3.98228E-02     9.25
   73.00     2.00     -16.30  -29.57  -16.10    0.03379   -12.10  RIGHT     1.83067E-01   179.36    3.97145E-02     8.73
   74.00     2.00     -16.88  -30.21  -16.69    0.08524   -11.21  RIGHT     1.71227E-01   163.95    3.69303E-02     8.20
   75.00     2.00     -17.26  -31.56  -17.10    0.11979    -8.59  RIGHT     1.63908E-01   147.95    3.15968E-02     7.40
   76.00     2.00     -17.43  -33.94  -17.33    0.11857    -5.20  RIGHT     1.60787E-01   132.76    2.40358E-02     5.86
   77.00     2.00     -17.53  -38.16  -17.49    0.08217    -2.49  RIGHT     1.58945E-01   119.44    1.47727E-02     1.78
   78.00     2.00     -17.77  -47.81  -17.76    0.02406    -1.16  RIGHT     1.54609E-01   108.26    4.86506E-03   -21.83
   79.00     2.00     -18.33  -44.13  -18.32    0.04622    -1.28  LEFT      1.44874E-01    98.80    7.43721E-03  -145.47
   80.00     2.00     -19.38  -36.60  -19.29    0.12765    -2.94  LEFT      1.28504E-01    90.33    1.76827E-02  -158.12
   81.00     2.00     -21.04  -32.91  -20.77    0.22389    -6.97  LEFT      1.06052E-01    81.82    2.70394E-02  -161.13
   82.00     2.00     -23.52  -30.77  -22.77    0.32652   -16.12  LEFT      7.97230E-02    71.54    3.46111E-02  -162.34
   83.00     2.00     -27.00  -29.56  -25.08    0.33057   -34.54  LEFT      5.34349E-02    55.54    3.97865E-02  -162.93
   84.00     2.00     -30.92  -29.06  -26.88    0.06611   -51.16  LEFT      3.39994E-02    24.51    4.21399E-02  -163.23
   85.00     2.00     -31.89  -29.20  -27.33    0.31736   -55.77  RIGHT     3.04177E-02   -20.58    4.14511E-02  -163.39
   86.00     2.00     -30.32  -30.02  -27.16    0.64108   -47.33  RIGHT     3.64628E-02   -48.87    3.77232E-02  -163.47
   87.00     2.00     -29.72  -31.67  -27.58    0.73683   -20.88  RIGHT     3.90427E-02   -61.83    3.11856E-02  -163.50
   88.00     2.00     -31.04  -34.60  -29.45    0.65677    -6.22  RIGHT     3.35512E-02   -68.19    2.22799E-02  -163.51
   89.00     2.00     -35.61  -40.24  -34.32    0.58553    -1.99  RIGHT     1.98323E-02   -71.28    1.16305E-02  -163.51
    0.00     3.00      -9.53  -35.14   -9.52    0.00000    -3.00  LINEAR    3.99275E-01    84.30    2.09251E-02   -95.70
    1.00     3.00      -9.51  -35.12   -9.50    0.00001    -3.00  LINEAR    4.00087E-01    87.05    2.09675E-02   -92.96
    2.00     3.00      -9.48  -35.09   -9.47    0.00002    -3.00  LEFT      4.01616E-01    89.07    2.10474E-02   -90.96
    3.00     3.00      -9.43  -35.04   -9.41    0.00005    -3.00  LEFT      4.04051E-01    90.40    2.11758E-02   -89.66
    4.00     3.00      -9.35  -34.96   -9.34    0.00010    -3.00  LEFT      4.07664E-01    91.10    2.13687E-02   -89.01
    5.00     3.00      -9.24  -34.85   -9.23    0.00017    -3.00  LEFT      4.12756E-01    91.26    2.16448E-02   -88.93
    6.00     3.00      -9.10  -34.70   -9.09    0.00025    -3.00  LEFT      4.19589E-01    90.97    2.20212E-02   -89.30
    7.00     3.00      -8.92  -34.51   -8.91    0.00035    -3.01  LEFT      4.28308E-01    90.37    2.25098E-02   -90.02
    8.00     3.00      -8.71  -34.28   -8.70    0.00047    -3.01  LEFT      4.38879E-01    89.57    2.31130E-02   -90.94
    9.00     3.00      -8.47  -34.01   -8.46    0.00060    -3.02  LEFT      4.51043E-01    88.70    2.38217E-02   -91.94
   10.00     3.00      -8.22  -33.73   -8.21    0.00072    -3.03  LEFT      4.64310E-01    87.87    2.46134E-02   -92.91
   11.00     3.00      -7.97  -33.44   -7.95    0.00084    -3.05  LEFT      4.77969E-01    87.15    2.54532E-02   -93.76
   12.00     3.00      -7.73  -33.16   -7.72    0.00095    -3.06  LEFT      4.91136E-01    86.60    2.62951E-02   -94.43
   13.00     3.00      -7.53  -32.90   -7.51    0.00105    -3.08  LEFT      5.02804E-01    86.24    2.70851E-02   -94.87
   14.00     3.00      -7.37  -32.68   -7.36    0.00112    -3.10  LEFT      5.11908E-01    86.09    2.77639E-02   -95.09
   15.00     3.00      -7.28  -32.53   -7.26    0.00117    -3.13  LEFT      5.17383E-01    86.14    2.82704E-02   -95.09
   16.00     3.00      -7.26  -32.44   -7.25    0.00120    -3.15  LEFT      5.18229E-01    86.38    2.85443E-02   -94.87
   17.00     3.00      -7.34  -32.45   -7.33    0.00120    -3.18  LEFT      5.13561E-01    86.78    2.85297E-02   -94.46
   18.00     3.00      -7.53  -32.56   -7.51    0.00117    -3.21  LEFT      5.02666E-01    87.32    2.81776E-02   -93.89
   19.00     3.00      -7.84  -32.78   -7.82    0.00111    -3.24  LEFT      4.85047E-01    87.96    2.74490E-02   -93.17
   20.00     3.00      -8.29  -33.15   -8.28    0.00102    -3.27  LEFT      4.60467E-01    88.68    2.63176E-02   -92.35
   21.00     3.00      -8.91  -33.67   -8.89    0.00089    -3.30  LEFT      4.28987E-01    89.45    2.47724E-02   -91.43
   22.00     3.00      -9.71  -34.39   -9.70    0.00071    -3.34  LEFT      3.90984E-01    90.24    2.28200E-02   -90.46
   23.00     3.00     -10.74  -35.32  -10.73    0.00049    -3.38  LEFT      3.47172E-01    91.01    2.04866E-02   -89.47
   24.00     3.00     -12.05  -36.54  -12.04    0.00020    -3.42  LEFT      2.98599E-01    91.72    1.78192E-02   -88.47
   25.00     3.00     -13.71  -38.10  -13.70    0.00017    -3.45  RIGHT     2.46627E-01    92.34    1.48860E-02   -87.50
   26.00     3.00     -15.85  -40.13  -15.83    0.00062    -3.49  RIGHT     1.92899E-01    92.81    1.17760E-02   -86.61
   27.00     3.00     -18.68  -42.87  -18.66    0.00119    -3.53  RIGHT     1.39274E-01    93.06    8.59737E-03   -85.84
   28.00     3.00     -22.69  -46.79  -22.67    0.00189    -3.57  RIGHT     8.77515E-02    93.01    5.47404E-03   -85.24
   29.00     3.00     -29.43  -53.45  -29.42    0.00277    -3.60  RIGHT     4.03617E-02    92.59    2.54119E-03   -84.87
   30.00     3.00     -61.78  -85.74  -61.76    0.00386    -3.62  RIGHT     9.74711E-04   -95.39    6.17934E-05    88.12
   31.00     3.00     -30.78  -54.71  -30.76    0.00522    -3.62  RIGHT     3.45822E-02   -90.94    2.19805E-03    93.79
   32.00     3.00     -26.09  -50.07  -26.07    0.00683    -3.60  RIGHT     5.93261E-02   -94.29    3.74993E-03    91.95
   33.00     3.00     -24.06  -48.23  -24.05    0.00857    -3.51  RIGHT     7.48941E-02   -99.85    4.63472E-03    88.14
   34.00     3.00     -23.23  -47.84  -23.22    0.00973    -3.32  RIGHT     8.24304E-02  -108.82    4.84722E-03    80.74
   35.00     3.00     -22.91  -48.36  -22.89    0.00831    -3.02  RIGHT     8.55833E-02  -122.82    4.56632E-03    66.16
   36.00     3.00     -22.32  -48.63  -22.31    0.00157    -2.77  RIGHT     9.15219E-02  -142.20    4.42722E-03    39.66
   37.00     3.00     -20.83  -46.66  -20.82    0.00773    -2.89  LEFT      1.08726E-01  -163.10    5.55707E-03     8.17
   38.00     3.00     -18.60  -43.15  -18.58    0.01297    -3.31  LEFT      1.40565E-01   179.99    8.32007E-03   -12.71
   39.00     3.00     -16.25  -39.81  -16.23    0.01377    -3.72  LEFT      1.84120E-01   168.42    1.22232E-02   -23.60
   40.00     3.00     -14.15  -37.05  -14.13    0.01253    -4.04  LEFT      2.34411E-01   160.80    1.68008E-02   -29.32
   41.00     3.00     -12.41  -34.83  -12.38    0.01056    -4.29  LEFT      2.86570E-01   155.62    2.16861E-02   -32.45
   42.00     3.00     -11.02  -33.08  -11.00    0.00829    -4.49  LEFT      3.36135E-01   151.87    2.65329E-02   -34.19
   43.00     3.00      -9.98  -31.73   -9.95    0.00579    -4.66  LEFT      3.79062E-01   148.92    3.09918E-02   -35.17
   44.00     3.00      -9.26  -30.74   -9.23    0.00302    -4.81  LEFT      4.11823E-01   146.35    3.47121E-02   -35.72
   45.00     3.00      -8.85  -30.11   -8.82    0.00014    -4.95  RIGHT     4.31583E-01   143.84    3.73572E-02   -36.07
   46.00     3.00      -8.76  -29.82   -8.72    0.00387    -5.05  RIGHT     4.36429E-01   141.08    3.86249E-02   -36.40
   47.00     3.00      -8.97  -29.90   -8.94    0.00832    -5.12  RIGHT     4.25611E-01   137.74    3.82716E-02   -36.91
   48.00     3.00      -9.52  -30.39   -9.48    0.01369    -5.11  RIGHT     3.99811E-01   133.39    3.61375E-02   -37.83
   49.00     3.00     -10.39  -31.40  -10.36    0.01990    -4.96  RIGHT     3.61499E-01   127.36    3.21771E-02   -39.62
   50.00     3.00     -11.57  -33.09  -11.54    0.02602    -4.57  RIGHT     3.15506E-01   118.63    2.65033E-02   -43.20
   51.00     3.00     -12.93  -35.75  -12.90    0.02830    -3.80  RIGHT     2.69991E-01   105.71    1.95059E-02   -51.13
   52.00     3.00     -14.05  -39.67  -14.04    0.01819    -2.81  RIGHT     2.37226E-01    87.32    1.24187E-02   -72.30
   53.00     3.00     -14.31  -41.49  -14.30    0.00744    -2.47  LEFT      2.30164E-01    65.11    1.00716E-02  -124.70
   54.00     3.00     -13.55  -37.19  -13.53    0.03054    -3.33  LEFT      2.51388E-01    44.46    1.65191E-02  -163.33
   55.00     3.00     -12.31  -33.26  -12.28    0.03865    -4.63  LEFT      2.89778E-01    28.79    2.59842E-02  -176.92
   56.00     3.00     -11.14  -30.54  -11.09    0.03645    -5.75  LEFT      3.31503E-01    17.55    3.55209E-02   177.45
   57.00     3.00     -10.27  -28.69  -10.21    0.02947    -6.63  LEFT      3.66714E-01     9.10    4.39954E-02   174.68
   58.00     3.00      -9.74  -27.46   -9.67    0.01995    -7.32  LEFT      3.89612E-01     2.15    5.06526E-02   173.17
   59.00     3.00      -9.57  -26.76   -9.49    0.00833    -7.85  LEFT      3.97427E-01    -4.22    5.49030E-02   172.26
   60.00     3.00      -9.74  -26.54   -9.65    0.00560    -8.21  RIGHT     3.89792E-01   -10.68    5.63087E-02   171.59
   61.00     3.00     -10.23  -26.81  -10.13    0.02212    -8.34  RIGHT     3.68429E-01   -17.86    5.46064E-02   170.91
   62.00     3.00     -11.00  -27.62  -10.91    0.04075    -8.07  RIGHT     3.36956E-01   -26.41    4.97341E-02   169.95
   63.00     3.00     -11.99  -29.12  -11.91    0.05856    -7.20  RIGHT     3.00678E-01   -37.05    4.18570E-02   168.25
   64.00     3.00     -13.05  -31.61  -12.99    0.06723    -5.54  RIGHT     2.66142E-01   -50.41    3.14043E-02   164.70
   65.00     3.00     -13.95  -35.87  -13.93    0.05314    -3.44  RIGHT     2.39909E-01   -66.54    1.92350E-02   155.15
   66.00     3.00     -14.47  -42.85  -14.47    0.01056    -2.10  RIGHT     2.25976E-01   -84.30    8.60927E-03   111.82
   67.00     3.00     -14.58  -38.55  -14.56    0.04356    -2.63  LEFT      2.23201E-01  -101.64    1.41266E-02    34.76
   68.00     3.00     -14.47  -32.83  -14.41    0.08513    -4.89  LEFT      2.26054E-01  -117.13    2.72885E-02    17.61
   69.00     3.00     -14.38  -29.52  -14.25    0.10328    -8.05  LEFT      2.28322E-01  -130.67    3.99672E-02    12.34
   70.00     3.00     -14.48  -27.48  -14.26    0.09761   -11.39  LEFT      2.25909E-01  -142.99    5.05661E-02    10.04
   71.00     3.00     -14.80  -26.26  -14.50    0.06956   -14.47  LEFT      2.17579E-01  -155.05    5.81530E-02     8.84
   72.00     3.00     -15.33  -25.70  -14.95    0.01994   -16.84  LEFT      2.04635E-01  -167.76    6.20697E-02     8.12
   73.00     3.00     -15.97  -25.72  -15.53    0.04807   -17.85  RIGHT     1.90189E-01   178.21    6.19207E-02     7.59
   74.00     3.00     -16.55  -26.35  -16.12    0.12211   -16.70  RIGHT     1.77942E-01   162.80    5.75973E-02     7.04
   75.00     3.00     -16.93  -27.70  -16.58    0.17481   -13.00  RIGHT     1.70385E-01   146.79    4.92931E-02     6.24
   76.00     3.00     -17.09  -30.07  -16.88    0.17611    -7.92  RIGHT     1.67186E-01   131.59    3.75076E-02     4.69
   77.00     3.00     -17.19  -34.30  -17.10    0.12302    -3.76  RIGHT     1.65312E-01   118.26    2.30584E-02     0.61
   78.00     3.00     -17.43  -43.94  -17.42    0.03610    -1.74  RIGHT     1.60840E-01   107.07    7.59557E-03   -23.02
   79.00     3.00     -17.99  -40.25  -17.96    0.06932    -1.93  LEFT      1.50745E-01    97.61    1.16138E-02  -146.66
   80.00     3.00     -19.03  -32.73  -18.85    0.19093    -4.50  LEFT      1.33739E-01    89.13    2.76185E-02  -159.31
   81.00     3.00     -20.70  -29.04  -20.10    0.32953   -11.09  LEFT      1.10392E-01    80.62    4.22403E-02  -162.33
   82.00     3.00     -23.17  -26.89  -21.64    0.44144   -26.58  LEFT      8.29989E-02    70.33    5.40774E-02  -163.55
   83.00     3.00     -26.65  -25.68  -23.13    0.34621   -49.04  LEFT      5.56386E-02    54.33    6.21725E-02  -164.14
   84.00     3.00     -30.57  -25.18  -24.08    0.05635   -61.86  LEFT      3.54059E-02    23.29    6.58581E-02  -164.45
   85.00     3.00     -31.54  -25.32  -24.39    0.25392   -67.16  RIGHT     3.16794E-02   -21.80    6.47885E-02  -164.61
   86.00     3.00     -29.96  -26.14  -24.63    0.53030   -68.75  RIGHT     3.79785E-02   -50.09    5.89669E-02  -164.69
   87.00     3.00     -29.37  -27.79  -25.50    0.75989   -66.01  RIGHT     4.06684E-02   -63.06    4.87509E-02  -164.73
   88.00     3.00     -30.69  -30.71  -27.69    0.91101   -43.95  RIGHT     3.49499E-02   -69.41    3.48307E-02  -164.74
   89.00     3.00     -35.25  -36.36  -32.76    0.87496    -8.47  RIGHT     2.06596E-02   -72.50    1.81827E-02  -164.74
    0.00     4.00      -9.54  -32.64   -9.52    0.00000    -4.00  LINEAR    3.98849E-01    84.30    2.78902E-02   -95.70
    1.00     4.00      -9.52  -32.62   -9.49    0.00001    -4.00  LINEAR    3.99866E-01    87.03    2.79611E-02   -92.97
    2.00     4.00      -9.48  -32.59   -9.46    0.00003    -4.00  LEFT      4.01608E-01    89.04    2.80826E-02   -90.99
    3.00     4.00      -9.42  -32.53   -9.40    0.00007    -4.00  LEFT      4.04265E-01    90.36    2.82695E-02   -89.70
    4.00     4.00      -9.34  -32.44   -9.32    0.00014    -4.00  LEFT      4.08112E-01    91.04    2.85433E-02   -89.07
    5.00     4.00      -9.23  -32.33   -9.20    0.00022    -4.00  LEFT      4.13452E-01    91.18    2.89290E-02   -89.00
    6.00     4.00      -9.08  -32.17   -9.06    0.00034    -4.01  LEFT      4.20550E-01    90.88    2.94499E-02   -89.39
    7.00     4.00      -8.89  -31.98   -8.87    0.00047    -4.01  LEFT      4.29556E-01    90.26    3.01219E-02   -90.12
    8.00     4.00      -8.68  -31.74   -8.65    0.00063    -4.02  LEFT      4.40439E-01    89.45    3.09490E-02   -91.06
    9.00     4.00      -8.43  -31.47   -8.41    0.00079    -4.03  LEFT      4.52945E-01    88.57    3.19190E-02   -92.08
   10.00     4.00      -8.18  -31.18   -8.15    0.00096    -4.05  LEFT      4.66585E-01    87.72    3.30022E-02   -93.06
   11.00     4.00      -7.92  -30.89   -7.90    0.00112    -4.06  LEFT      4.80647E-01    86.98    3.41521E-02   -93.93
   12.00     4.00      -7.68  -30.60   -7.65    0.00127    -4.09  LEFT      4.94245E-01    86.41    3.53072E-02   -94.61
   13.00     4.00      -7.46  -30.33   -7.44    0.00139    -4.11  LEFT      5.06365E-01    86.04    3.63951E-02   -95.08
   14.00     4.00      -7.30  -30.11   -7.28    0.00149    -4.14  LEFT      5.15931E-01    85.87    3.73361E-02   -95.31
   15.00     4.00      -7.20  -29.95   -7.18    0.00156    -4.17  LEFT      5.21866E-01    85.91    3.80475E-02   -95.33
   16.00     4.00      -7.18  -29.86   -7.16    0.00159    -4.20  LEFT      5.23154E-01    86.12    3.84482E-02   -95.13
   17.00     4.00      -7.25  -29.85   -7.23    0.00160    -4.24  LEFT      5.18892E-01    86.51    3.84618E-02   -94.74
   18.00     4.00      -7.43  -29.95   -7.41    0.00156    -4.28  LEFT      5.08346E-01    87.02    3.80218E-02   -94.18
   19.00     4.00      -7.73  -30.17   -7.71    0.00148    -4.32  LEFT      4.91001E-01    87.65    3.70744E-02   -93.48
   20.00     4.00      -8.18  -30.53   -8.15    0.00136    -4.36  LEFT      4.66599E-01    88.35    3.55827E-02   -92.68
   21.00     4.00      -8.78  -31.05   -8.75    0.00118    -4.41  LEFT      4.35181E-01    89.10    3.35307E-02   -91.78
   22.00     4.00      -9.58  -31.75   -9.55    0.00095    -4.45  LEFT      3.97114E-01    89.87    3.09258E-02   -90.83
   23.00     4.00     -10.60  -32.67  -10.57    0.00065    -4.50  LEFT      3.53100E-01    90.62    2.78017E-02   -89.85
   24.00     4.00     -11.89  -33.87  -11.86    0.00026    -4.55  LEFT      3.04183E-01    91.31    2.42205E-02   -88.88
   25.00     4.00     -13.54  -35.42  -13.51    0.00022    -4.60  RIGHT     2.51732E-01    91.91    2.02732E-02   -87.93
   26.00     4.00     -15.65  -37.43  -15.62    0.00083    -4.66  RIGHT     1.97400E-01    92.36    1.60792E-02   -87.06
   27.00     4.00     -18.44  -40.13  -18.41    0.00158    -4.71  RIGHT     1.43070E-01    92.58    1.17840E-02   -86.31
   28.00     4.00     -22.40  -43.99  -22.37    0.00252    -4.76  RIGHT     9.07690E-02    92.51    7.55507E-03   -85.74
   29.00     4.00     -28.97  -50.49  -28.94    0.00368    -4.80  RIGHT     4.25662E-02    92.04    3.57586E-03   -85.43
   30.00     4.00     -68.71  -90.16  -68.67    0.00514    -4.83  RIGHT     4.38976E-04   100.82    3.71326E-05   -75.68
   31.00     4.00     -30.94  -52.37  -30.91    0.00694    -4.83  RIGHT     3.39309E-02   -91.41    2.87759E-03    93.32
   32.00     4.00     -26.09  -47.57  -26.06    0.00909    -4.79  RIGHT     5.93246E-02   -94.80    5.00334E-03    91.43
   33.00     4.00     -24.01  -45.67  -23.98    0.01140    -4.68  RIGHT     7.54080E-02  -100.39    6.22647E-03    87.60
   34.00     4.00     -23.14  -45.25  -23.11    0.01295    -4.42  RIGHT     8.33137E-02  -109.39    6.53687E-03    80.17
   35.00     4.00     -22.79  -45.74  -22.77    0.01106    -4.02  RIGHT     8.67254E-02  -123.41    6.17407E-03    65.57
   36.00     4.00     -22.19  -45.99  -22.17    0.00210    -3.69  RIGHT     9.29279E-02  -142.81    5.99791E-03    39.06
   37.00     4.00     -20.68  -44.01  -20.66    0.01030    -3.86  LEFT      1.10578E-01  -163.73    7.54096E-03     7.54
   38.00     4.00     -18.44  -40.49  -18.41    0.01726    -4.41  LEFT      1.43161E-01   179.34    1.13064E-02   -13.36
   39.00     4.00     -16.08  -37.14  -16.05    0.01832    -4.95  LEFT      1.87760E-01   167.76    1.66316E-02   -24.27
   40.00     4.00     -13.97  -34.36  -13.93    0.01666    -5.38  LEFT      2.39326E-01   160.12    2.28871E-02   -30.00
   41.00     4.00     -12.22  -32.14  -12.18    0.01403    -5.71  LEFT      2.92898E-01   154.91    2.95743E-02   -33.15
   42.00     4.00     -10.82  -30.37  -10.78    0.01100    -5.98  LEFT      3.43914E-01   151.15    3.62217E-02   -34.91
   43.00     4.00      -9.77  -29.02   -9.72    0.00769    -6.21  LEFT      3.88218E-01   148.19    4.23507E-02   -35.90
   44.00     4.00      -9.04  -28.02   -8.99    0.00401    -6.41  LEFT      4.22172E-01   145.60    4.74797E-02   -36.47
   45.00     4.00      -8.63  -27.38   -8.57    0.00019    -6.59  RIGHT     4.42837E-01   143.07    5.11448E-02   -36.84
   46.00     4.00      -8.52  -27.08   -8.46    0.00513    -6.73  RIGHT     4.48211E-01   140.29    5.29278E-02   -37.19
   47.00     4.00      -8.73  -27.15   -8.67    0.01104    -6.81  RIGHT     4.37481E-01   136.93    5.24893E-02   -37.71
   48.00     4.00      -9.27  -27.64   -9.21    0.01815    -6.80  RIGHT     4.11311E-01   132.57    4.96047E-02   -38.65
   49.00     4.00     -10.14  -28.64  -10.08    0.02640    -6.61  RIGHT     3.72206E-01   126.53    4.42051E-02   -40.45
   50.00     4.00     -11.31  -30.32  -11.26    0.03455    -6.09  RIGHT     3.25115E-01   117.78    3.64399E-02   -44.05
   51.00     4.00     -12.66  -32.98  -12.62    0.03763    -5.07  RIGHT     2.78436E-01   104.84    2.68404E-02   -51.99
   52.00     4.00     -13.78  -36.89  -13.76    0.02422    -3.75  RIGHT     2.44837E-01    86.44    1.71017E-02   -73.19
   53.00     4.00     -14.03  -38.71  -14.02    0.00992    -3.29  LEFT      2.37731E-01    64.21    1.38801E-02  -125.60
   54.00     4.00     -13.26  -34.40  -13.23    0.04064    -4.44  LEFT      2.59846E-01    43.55    2.27828E-02  -164.24
   55.00     4.00     -12.02  -30.46  -11.96    0.05130    -6.17  LEFT      2.99748E-01    27.86    3.58632E-02  -177.85
   56.00     4.00     -10.84  -27.74  -10.76    0.04826    -7.66  LEFT      3.43155E-01    16.61    4.90608E-02   176.51
   57.00     4.00      -9.96  -25.87   -9.85    0.03892    -8.83  LEFT      3.79871E-01     8.14    6.08084E-02   173.73
   58.00     4.00      -9.43  -24.64   -9.30    0.02628    -9.73  LEFT      4.03868E-01     1.18    7.00579E-02   172.21
   59.00     4.00      -9.25  -23.94   -9.11    0.01096   -10.43  LEFT      4.12246E-01    -5.20    7.59876E-02   171.28
   60.00     4.00      -9.41  -23.71   -9.26    0.00735   -10.90  RIGHT     4.04591E-01   -11.67    7.79843E-02   170.59
   61.00     4.00      -9.90  -23.97   -9.73    0.02903   -11.07  RIGHT     3.82662E-01   -18.86    7.56751E-02   169.90
   62.00     4.00     -10.67  -24.78  -10.50    0.05355   -10.73  RIGHT     3.50191E-01   -27.43    6.89658E-02   168.93
   63.00     4.00     -11.65  -26.27  -11.50    0.07718    -9.59  RIGHT     3.12678E-01   -38.08    5.80779E-02   167.22
   64.00     4.00     -12.71  -28.76  -12.60    0.08906    -7.40  RIGHT     2.76926E-01   -51.45    4.36001E-02   163.66
   65.00     4.00     -13.60  -33.02  -13.55    0.07071    -4.59  RIGHT     2.49772E-01   -67.59    2.67201E-02   154.10
   66.00     4.00     -14.12  -39.99  -14.11    0.01408    -2.80  RIGHT     2.35397E-01   -85.36    1.19661E-02   110.76
   67.00     4.00     -14.22  -35.69  -14.19    0.05802    -3.51  LEFT      2.32630E-01  -102.71    1.96452E-02    33.69
   68.00     4.00     -14.11  -29.97  -13.99    0.11294    -6.55  LEFT      2.35726E-01  -118.21    3.79684E-02    16.53
   69.00     4.00     -14.01  -26.65  -13.78    0.13571   -10.77  LEFT      2.38209E-01  -131.76    5.56367E-02    11.25
   70.00     4.00     -14.10  -24.60  -13.73    0.12636   -15.15  LEFT      2.35804E-01  -144.09    7.04246E-02     8.94
   71.00     4.00     -14.43  -23.38  -13.91    0.08849   -19.07  LEFT      2.27212E-01  -156.16    8.10281E-02     7.73
   72.00     4.00     -14.95  -22.81  -14.30    0.02498   -22.00  LEFT      2.13789E-01  -168.88    8.65231E-02     7.00
   73.00     4.00     -15.59  -22.83  -14.84    0.05975   -23.29  RIGHT     1.98779E-01   177.09    8.63512E-02     6.47
   74.00     4.00     -16.16  -23.45  -15.42    0.15297   -22.04  RIGHT     1.86052E-01   161.67    8.03536E-02     5.91
   75.00     4.00     -16.53  -24.80  -15.93    0.22419   -17.51  RIGHT     1.78216E-01   145.65    6.87941E-02     5.10
   76.00     4.00     -16.70  -27.17  -16.32    0.23146   -10.77  RIGHT     1.74931E-01   130.44    5.23643E-02     3.54
   77.00     4.00     -16.79  -31.40  -16.64    0.16359    -5.07  RIGHT     1.73028E-01   117.11    3.22024E-02    -0.54
   78.00     4.00     -17.03  -41.04  -17.01    0.04813    -2.33  RIGHT     1.68398E-01   105.92    1.06109E-02   -24.17
   79.00     4.00     -17.59  -37.35  -17.54    0.09242    -2.58  LEFT      1.57874E-01    96.45    1.62289E-02  -147.82
   80.00     4.00     -18.63  -29.82  -18.31    0.25350    -6.18  LEFT      1.40099E-01    87.97    3.86034E-02  -160.48
   81.00     4.00     -20.29  -26.13  -19.28    0.42618   -16.07  LEFT      1.15668E-01    79.45    5.90546E-02  -163.50
   82.00     4.00     -22.77  -23.98  -20.32    0.49989   -38.30  LEFT      8.69846E-02    69.15    7.56195E-02  -164.72
   83.00     4.00     -26.24  -22.77  -21.15    0.31666   -58.82  LEFT      5.83213E-02    53.15    8.69556E-02  -165.32
   84.00     4.00     -30.16  -22.27  -21.61    0.04679   -68.19  LEFT      3.71190E-02    22.11    9.21253E-02  -165.63
   85.00     4.00     -31.13  -22.41  -21.86    0.20337   -73.00  RIGHT     3.32168E-02   -22.98    9.06414E-02  -165.79
   86.00     4.00     -29.55  -23.22  -22.31    0.41820   -76.17  RIGHT     3.98261E-02   -51.27    8.25062E-02  -165.88
   87.00     4.00     -28.96  -24.88  -23.44    0.59722   -78.72  RIGHT     4.26505E-02   -64.24    6.82179E-02  -165.91
   88.00     4.00     -30.27  -27.80  -25.85    0.74067   -81.09  RIGHT     3.66556E-02   -70.60    4.87422E-02  -165.93
   89.00     4.00     -34.84  -33.44  -31.07    0.84756   -83.20  RIGHT     2.16687E-02   -73.69    2.54459E-02  -165.93
    0.00     5.00      -9.55  -30.71   -9.52    0.00000    -5.00  LINEAR    3.98301E-01    84.30    3.48468E-02   -95.70
    1.00     5.00      -9.52  -30.68   -9.49    0.00001    -5.00  LINEAR    3.99523E-01    87.02    3.49535E-02   -92.99
    2.00     5.00      -9.48  -30.64   -9.45    0.00004    -5.00  LEFT      4.01481E-01    89.01    3.51244E-02   -91.02
    3.00     5.00      -9.42  -30.58   -9.39    0.00009    -5.00  LEFT      4.04365E-01    90.31    3.53780E-02   -89.75
    4.00     5.00      -9.33  -30.49   -9.30    0.00017    -5.00  LEFT      4.08451E-01    90.98    3.57415E-02   -89.13
    5.00     5.00      -9.21  -30.37   -9.18    0.00028    -5.00  LEFT      4.14047E-01    91.11    3.62466E-02   -89.08
    6.00     5.00      -9.06  -30.21   -9.03    0.00042    -5.01  LEFT      4.21422E-01    90.79    3.69225E-02   -89.49
    7.00     5.00      -8.87  -30.01   -8.84    0.00059    -5.01  LEFT      4.30729E-01    90.15    3.77898E-02   -90.24
    8.00     5.00      -8.65  -29.77   -8.61    0.00078    -5.02  LEFT      4.41943E-01    89.32    3.88539E-02   -91.19
    9.00     5.00      -8.40  -29.49   -8.36    0.00099    -5.04  LEFT      4.54813E-01    88.42    4.00999E-02   -92.23
   10.00     5.00      -8.13  -29.19   -8.10    0.00120    -5.06  LEFT      4.68852E-01    87.55    4.14912E-02   -93.23
   11.00     5.00      -7.87  -28.89   -7.83    0.00140    -5.08  LEFT      4.83350E-01    86.80    4.29695E-02   -94.11
   12.00     5.00      -7.62  -28.59   -7.58    0.00158    -5.11  LEFT      4.97417E-01    86.21    4.44580E-02   -94.81
   13.00     5.00      -7.40  -28.32   -7.37    0.00174    -5.14  LEFT      5.10033E-01    85.82    4.58655E-02   -95.30
   14.00     5.00      -7.23  -28.10   -7.20    0.00186    -5.17  LEFT      5.20113E-01    85.63    4.70915E-02   -95.55
[...]
   17.00   359.00      -7.65  -42.31   -7.65    0.00040     1.06  RIGHT     4.95451E-01    87.61    9.16709E-03    86.37
   18.00   359.00      -7.86  -42.44   -7.86    0.00039     1.07  RIGHT     4.83782E-01    88.20    9.03234E-03    87.00
   19.00   359.00      -8.19  -42.69   -8.19    0.00037     1.08  RIGHT     4.65687E-01    88.90    8.77735E-03    87.76
   20.00   359.00      -8.67  -43.07   -8.66    0.00034     1.09  RIGHT     4.40983E-01    89.67    8.39452E-03    88.64
   21.00   359.00      -9.30  -43.62   -9.30    0.00030     1.10  RIGHT     4.09772E-01    90.50    7.88120E-03    89.61
   22.00   359.00     -10.13  -44.36  -10.13    0.00024     1.11  RIGHT     3.72460E-01    91.34    7.24040E-03    90.64
   23.00   359.00     -11.19  -45.32  -11.19    0.00016     1.13  RIGHT     3.29770E-01    92.17    6.48132E-03    91.70
   24.00   359.00     -12.53  -46.56  -12.52    0.00007     1.14  RIGHT     2.82739E-01    92.94    5.61969E-03    92.75
   25.00   359.00     -14.22  -48.15  -14.22    0.00006     1.15  LEFT      2.32693E-01    93.62    4.67784E-03    93.78
   26.00   359.00     -16.39  -50.23  -16.39    0.00021     1.16  LEFT      1.81210E-01    94.16    3.68449E-03    94.74
   27.00   359.00     -19.27  -53.01  -19.27    0.00040     1.18  LEFT      1.30065E-01    94.48    2.67412E-03    95.59
   28.00   359.00     -23.37  -57.02  -23.37    0.00063     1.19  LEFT      8.11447E-02    94.54    1.68593E-03    96.28
   29.00   359.00     -30.34  -63.91  -30.34    0.00093     1.20  LEFT      3.63523E-02    94.30    7.62299E-04    96.83
   30.00   359.00     -53.47  -86.97  -53.46    0.00129     1.21  LEFT      2.53736E-03   -92.71    5.35764E-05   -89.20
   31.00   359.00     -30.93  -64.42  -30.93    0.00174     1.21  LEFT      3.39706E-02   -89.56    7.19142E-04   -84.83
   32.00   359.00     -26.44  -59.98  -26.44    0.00228     1.20  LEFT      5.69495E-02   -92.76    1.19893E-03   -86.53
   33.00   359.00     -24.50  -58.22  -24.50    0.00286     1.17  LEFT      7.12368E-02   -98.23    1.46827E-03   -90.24
   34.00   359.00     -23.72  -57.88  -23.71    0.00325     1.11  LEFT      7.79689E-02  -107.13    1.52705E-03   -97.57
   35.00   359.00     -23.43  -58.43  -23.42    0.00277     1.01  LEFT      8.06194E-02  -121.06    1.43266E-03  -112.08
   36.00   359.00     -22.87  -58.73  -22.87    0.00053     0.92  LEFT      8.59251E-02  -140.38    1.38437E-03  -138.51
   37.00   359.00     -21.40  -56.78  -21.40    0.00258     0.96  RIGHT     1.01781E-01  -161.22    1.73262E-03  -169.95
   38.00   359.00     -19.19  -53.30  -19.19    0.00433     1.10  RIGHT     1.31241E-01  -178.07    2.58728E-03   169.24
   39.00   359.00     -16.87  -49.98  -16.87    0.00460     1.24  RIGHT     1.71490E-01   170.43    3.79183E-03   158.40
   40.00   359.00     -14.79  -47.23  -14.79    0.00419     1.35  RIGHT     2.17836E-01   162.86    5.20004E-03   152.74
   41.00   359.00     -13.07  -45.04  -13.06    0.00353     1.43  RIGHT     2.65731E-01   157.74    6.69758E-03   149.67
   42.00   359.00     -11.70  -43.30  -11.69    0.00277     1.50  RIGHT     3.11048E-01   154.05    8.17757E-03   147.99
   43.00   359.00     -10.67  -41.97  -10.67    0.00194     1.56  RIGHT     3.50074E-01   151.16    9.53283E-03   147.07
   44.00   359.00      -9.97  -41.00   -9.96    0.00101     1.61  RIGHT     3.79599E-01   148.65    1.06567E-02   146.58
   45.00   359.00      -9.58  -40.38   -9.57    0.00005     1.65  LEFT      3.97073E-01   146.19    1.14474E-02   146.29
   46.00   359.00      -9.50  -40.11   -9.49    0.00130     1.69  LEFT      4.00808E-01   143.49    1.18145E-02   146.01
   47.00   359.00      -9.73  -40.20   -9.72    0.00279     1.71  LEFT      3.90187E-01   140.21    1.16859E-02   145.56
   48.00   359.00     -10.29  -40.71  -10.28    0.00459     1.70  LEFT      3.65909E-01   135.91    1.10155E-02   144.69
   49.00   359.00     -11.18  -41.74  -11.17    0.00667     1.65  LEFT      3.30296E-01   129.95    9.79195E-03   142.96
   50.00   359.00     -12.37  -43.44  -12.37    0.00872     1.52  LEFT      2.87807E-01   121.27    8.05227E-03   139.44
   51.00   359.00     -13.74  -46.11  -13.74    0.00946     1.27  LEFT      2.45900E-01   108.40    5.91698E-03   131.57
   52.00   359.00     -14.88  -50.05  -14.87    0.00607     0.94  LEFT      2.15727E-01    90.06    3.76135E-03   110.44
   53.00   359.00     -15.15  -51.88  -15.15    0.00248     0.82  RIGHT     2.08993E-01    67.91    3.04591E-03    58.10
   54.00   359.00     -14.40  -47.59  -14.40    0.01020     1.11  RIGHT     2.27933E-01    47.32    4.98857E-03    19.52
   55.00   359.00     -13.18  -43.67  -13.17    0.01295     1.54  RIGHT     2.62370E-01    31.70    7.83583E-03     5.99
   56.00   359.00     -12.02  -40.97  -12.01    0.01225     1.92  RIGHT     2.99737E-01    20.50    1.06970E-02     0.40
   57.00   359.00     -11.15  -39.12  -11.15    0.00993     2.22  RIGHT     3.31131E-01    12.11    1.32314E-02    -2.31
   58.00   359.00     -10.64  -37.91  -10.63    0.00674     2.45  RIGHT     3.51352E-01     5.20    1.52138E-02    -3.77
   59.00   359.00     -10.48  -37.22  -10.47    0.00282     2.63  RIGHT     3.57949E-01    -1.11    1.64697E-02    -4.63
   60.00   359.00     -10.66  -37.01  -10.65    0.00190     2.75  LEFT      3.50645E-01    -7.52    1.68708E-02    -5.26
   61.00   359.00     -11.16  -37.29  -11.15    0.00751     2.79  LEFT      3.31037E-01   -14.65    1.63415E-02    -5.89
   62.00   359.00     -11.94  -38.11  -11.93    0.01381     2.70  LEFT      3.02413E-01   -23.16    1.48664E-02    -6.80
   63.00   359.00     -12.94  -39.62  -12.93    0.01978     2.40  LEFT      2.69557E-01   -33.75    1.24981E-02    -8.45
   64.00   359.00     -14.01  -42.12  -14.00    0.02258     1.84  LEFT      2.38342E-01   -47.07    9.36703E-03   -11.96
   65.00   359.00     -14.92  -46.39  -14.92    0.01776     1.14  LEFT      2.14629E-01   -63.16    5.73140E-03   -21.46
   66.00   359.00     -15.45  -53.38  -15.45    0.00352     0.70  LEFT      2.01965E-01   -80.87    2.56275E-03   -64.76
   67.00   359.00     -15.56  -49.09  -15.56    0.01453     0.87  RIGHT     1.99297E-01   -98.17    4.20115E-03  -141.77
   68.00   359.00     -15.46  -43.38  -15.45    0.02854     1.62  RIGHT     2.01662E-01  -113.62    8.10806E-03  -158.88
   69.00   359.00     -15.38  -40.07  -15.37    0.03500     2.67  RIGHT     2.03508E-01  -127.13    1.18649E-02  -164.12
   70.00   359.00     -15.48  -38.03  -15.46    0.03367     3.81  RIGHT     2.01191E-01  -139.41    1.49989E-02  -166.39
   71.00   359.00     -15.81  -36.83  -15.78    0.02452     4.89  RIGHT     1.93620E-01  -151.44    1.72358E-02  -167.55
   72.00   359.00     -16.35  -36.27  -16.31    0.00718     5.75  RIGHT     1.81965E-01  -164.12    1.83829E-02  -168.23
   73.00   359.00     -17.00  -36.29  -16.95    0.01747     6.11  LEFT      1.69000E-01  -178.11    1.83258E-02  -168.73
   74.00   359.00     -17.58  -36.93  -17.53    0.04385     5.62  LEFT      1.58012E-01   166.51    1.70349E-02  -169.25
   75.00   359.00     -17.96  -38.28  -17.92    0.06089     4.27  LEFT      1.51206E-01   150.53    1.45697E-02  -170.02
   76.00   359.00     -18.13  -40.66  -18.11    0.05963     2.58  LEFT      1.48280E-01   135.35    1.10797E-02  -171.55
   77.00   359.00     -18.23  -44.89  -18.23    0.04113     1.24  LEFT      1.46538E-01   122.06    6.80769E-03  -175.60
   78.00   359.00     -18.48  -54.54  -18.48    0.01203     0.58  LEFT      1.42501E-01   110.89    2.24135E-03   160.80
   79.00   359.00     -19.04  -50.86  -19.04    0.02311     0.64  RIGHT     1.33495E-01   101.45    3.42549E-03    37.18
   80.00   359.00     -20.09  -43.34  -20.07    0.06393     1.45  RIGHT     1.18384E-01    92.99    8.14257E-03    24.54
   81.00   359.00     -21.76  -39.65  -21.69    0.11311     3.36  RIGHT     9.76794E-02    84.49    1.24486E-02    21.55
   82.00   359.00     -24.24  -37.51  -24.04    0.17238     7.51  RIGHT     7.34157E-02    74.22    1.59316E-02    20.34
   83.00   359.00     -27.71  -36.30  -27.15    0.21256    17.04  RIGHT     4.91994E-02    58.24    1.83108E-02    19.77
   84.00   359.00     -31.64  -35.80  -30.23    0.06052    31.67  RIGHT     3.13000E-02    27.21    1.93912E-02    19.47
   85.00   359.00     -32.61  -35.95  -30.96    0.30792    31.86  LEFT      2.79994E-02   -17.87    1.90720E-02    19.32
   86.00   359.00     -31.04  -36.77  -30.01    0.44416    15.22  LEFT      3.35606E-02   -46.15    1.73551E-02    19.25
   87.00   359.00     -30.44  -38.42  -29.80    0.38802     5.44  LEFT      3.59324E-02   -59.11    1.43462E-02    19.22
   88.00   359.00     -31.76  -41.34  -31.31    0.33014     1.98  LEFT      3.08767E-02   -65.46    1.02488E-02    19.21
   89.00   359.00     -36.33  -46.99  -35.97    0.29287     0.72  LEFT      1.82508E-02   -68.55    5.34987E-03    19.22
    0.00   360.00      -9.52 -999.99   -9.52    0.00000     0.00  LINEAR    3.99823E-01    84.30    4.23565E-14    84.30
    1.00   360.00      -9.51 -999.99   -9.51    0.00000     0.00  LINEAR    4.00022E-01    87.08    4.23772E-14    87.07
    2.00   360.00      -9.49 -999.99   -9.49    0.00000     0.00  LINEAR    4.00928E-01    89.14    4.24727E-14    89.11
    3.00   360.00      -9.45 -999.99   -9.45    0.00000     0.00  LINEAR    4.02723E-01    90.50    4.26644E-14    90.44
    4.00   360.00      -9.39 -999.99   -9.39    0.00000     0.00  LINEAR    4.05675E-01    91.24    4.29845E-14    91.13
    5.00   360.00      -9.30 -999.99   -9.30    0.00000     0.00  LINEAR    4.10078E-01    91.44    4.34694E-14    91.25
    6.00   360.00      -9.17 -999.99   -9.17    0.00000     0.00  LINEAR    4.16184E-01    91.19    4.41529E-14    90.91
    7.00   360.00      -9.00 -999.99   -9.00    0.00000     0.00  LINEAR    4.24127E-01    90.62    4.50575E-14    90.23
    8.00   360.00      -8.81 -999.99   -8.81    0.00000     0.00  LINEAR    4.33864E-01    89.87    4.61873E-14    89.35
    9.00   360.00      -8.58 -999.99   -8.58    0.00000     0.00  LINEAR    4.45131E-01    89.04    4.75226E-14    88.39
   10.00   360.00      -8.35 -999.99   -8.35    0.00000     0.00  LINEAR    4.57435E-01    88.24    4.90175E-14    87.46
   11.00   360.00      -8.11 -999.99   -8.11    0.00000     0.00  LINEAR    4.70071E-01    87.56    5.06015E-14    86.65
   12.00   360.00      -7.89 -999.99   -7.89    0.00000     0.00  LINEAR    4.82167E-01    87.05    5.21828E-14    86.03
   13.00   360.00      -7.70 -999.99   -7.70    0.00000     0.00  LINEAR    4.92738E-01    86.74    5.36542E-14    85.62
   14.00   360.00      -7.56 -999.99   -7.56    0.00000     0.00  LINEAR    5.00746E-01    86.63    5.48989E-14    85.44
   15.00   360.00      -7.49 -999.99   -7.49    0.00000     0.00  LINEAR    5.05166E-01    86.72    5.57969E-14    85.49
   16.00   360.00      -7.49 -999.99   -7.49    0.00000     0.00  LINEAR    5.05039E-01    87.00    5.62314E-14    85.75
   17.00   360.00      -7.58 -999.99   -7.58    0.00000     0.00  LINEAR    4.99526E-01    87.45    5.60945E-14    86.21
   18.00   360.00      -7.79 -999.99   -7.79    0.00000     0.00  LINEAR    4.87964E-01    88.03    5.52929E-14    86.82
   19.00   360.00      -8.11 -999.99   -8.11    0.00000     0.00  LINEAR    4.69902E-01    88.71    5.37537E-14    87.58
   20.00   360.00      -8.58 -999.99   -8.58    0.00000     0.00  LINEAR    4.45149E-01    89.48    5.14293E-14    88.45
   21.00   360.00      -9.22 -999.99   -9.22    0.00000     0.00  LINEAR    4.13799E-01    90.30    4.83026E-14    89.41
   22.00   360.00     -10.04 -999.99  -10.04    0.00000     0.00  LINEAR    3.76255E-01    91.13    4.43912E-14    90.43
   23.00   360.00     -11.10 -999.99  -11.10    0.00000     0.00  LINEAR    3.33243E-01    91.95    3.97506E-14    91.47
   24.00   360.00     -12.43 -999.99  -12.43    0.00000     0.00  LINEAR    2.85803E-01    92.71    3.44766E-14    92.52
   25.00   360.00     -14.12 -999.99  -14.12    0.00000     0.00  LINEAR    2.35275E-01    93.38    2.87058E-14    93.54
   26.00   360.00     -16.29 -999.99  -16.29    0.00000     0.00  LINEAR    1.83255E-01    93.90    2.26142E-14    94.49
   27.00   360.00     -19.17 -999.99  -19.17    0.00000     0.00  LINEAR    1.31537E-01    94.22    1.64134E-14    95.32
   28.00   360.00     -23.27 -999.99  -23.27    0.00000     0.00  LINEAR    8.20363E-02    94.25    1.03446E-14    95.99
   29.00   360.00     -30.26 -999.99  -30.26    0.00000     0.00  LINEAR    3.66841E-02    93.98    4.66877E-15    96.51
   30.00   360.00     -52.89 -999.99  -52.89    0.00000     0.00  LINEAR    2.71098E-03   -92.03    3.47415E-16   -88.52
   31.00   360.00     -30.78 -999.99  -30.78    0.00000     0.00  LINEAR    3.45769E-02   -89.80    4.44251E-15   -85.07
   32.00   360.00     -26.30 -999.99  -26.30    0.00000     0.00  LINEAR    5.78833E-02   -93.03    7.39584E-15   -86.80
   33.00   360.00     -24.36 -999.99  -24.36    0.00000     0.00  LINEAR    7.23842E-02   -98.52    9.05475E-15   -90.53
   34.00   360.00     -23.58 -999.99  -23.58    0.00000     0.00  LINEAR    7.92253E-02  -107.44    9.41730E-15   -97.88
   35.00   360.00     -23.29 -999.99  -23.29    0.00000     0.00  LINEAR    8.19287E-02  -121.38    8.83629E-15  -112.39
   36.00   360.00     -22.73 -999.99  -22.73    0.00000     0.00  LINEAR    8.73360E-02  -140.71    8.53996E-15  -138.84
   37.00   360.00     -21.26 -999.99  -21.26    0.00000     0.00  LINEAR    1.03473E-01  -161.55    1.06904E-14  -170.28
   38.00   360.00     -19.05 -999.99  -19.05    0.00000     0.00  LINEAR    1.33452E-01  -178.41    1.59673E-14   168.89
   39.00   360.00     -16.72 -999.99  -16.72    0.00000     0.00  LINEAR    1.74420E-01   170.08    2.34064E-14   158.05
   40.00   360.00     -14.64 -999.99  -14.64    0.00000     0.00  LINEAR    2.21607E-01   162.50    3.21065E-14   152.38
   41.00   360.00     -12.91 -999.99  -12.91    0.00000     0.00  LINEAR    2.70393E-01   157.37    4.13621E-14   149.30
   42.00   360.00     -11.54 -999.99  -11.54    0.00000     0.00  LINEAR    3.16576E-01   153.67    5.05134E-14   147.61
   43.00   360.00     -10.52 -999.99  -10.52    0.00000     0.00  LINEAR    3.56374E-01   150.77    5.88979E-14   146.68
   44.00   360.00      -9.81 -999.99   -9.81    0.00000     0.00  LINEAR    3.86514E-01   148.25    6.58556E-14   146.18
   45.00   360.00      -9.42 -999.99   -9.42    0.00000     0.00  LINEAR    4.04392E-01   145.78    7.07569E-14   145.88
   46.00   360.00      -9.33 -999.99   -9.33    0.00000     0.00  LINEAR    4.08278E-01   143.07    7.30409E-14   145.59
   47.00   360.00      -9.57 -999.99   -9.57    0.00000     0.00  LINEAR    3.97538E-01   139.78    7.22601E-14   145.14
   48.00   360.00     -10.12 -999.99  -10.12    0.00000     0.00  LINEAR    3.72874E-01   135.48    6.81275E-14   144.26
   49.00   360.00     -11.01 -999.99  -11.01    0.00000     0.00  LINEAR    3.36645E-01   129.50    6.05716E-14   142.52
   50.00   360.00     -12.21 -999.99  -12.21    0.00000     0.00  LINEAR    2.93391E-01   120.82    4.98190E-14   138.99
   51.00   360.00     -13.57 -999.99  -13.57    0.00000     0.00  LINEAR    2.50714E-01   107.94    3.66143E-14   131.10
   52.00   360.00     -14.71 -999.99  -14.71    0.00000     0.00  LINEAR    2.19986E-01    89.60    2.32791E-14   109.97
   53.00   360.00     -14.98 -999.99  -14.98    0.00000     0.00  LINEAR    2.13153E-01    67.43    1.88541E-14    57.62
   54.00   360.00     -14.23 -999.99  -14.23    0.00000     0.00  LINEAR    2.32504E-01    46.83    3.08838E-14    19.04
   55.00   360.00     -13.00 -999.99  -13.00    0.00000     0.00  LINEAR    2.67670E-01    31.20    4.85178E-14     5.49
   56.00   360.00     -11.84 -999.99  -11.84    0.00000     0.00  LINEAR    3.05833E-01    20.00    6.62426E-14    -0.10
   57.00   360.00     -10.98 -999.99  -10.98    0.00000     0.00  LINEAR    3.37909E-01    11.60    8.19478E-14    -2.82
   58.00   360.00     -10.46 -999.99  -10.46    0.00000     0.00  LINEAR    3.58588E-01     4.69    9.42372E-14    -4.28
   59.00   360.00     -10.30 -999.99  -10.30    0.00000     0.00  LINEAR    3.65364E-01    -1.63    1.02028E-13    -5.16
   60.00   360.00     -10.48 -999.99  -10.48    0.00000     0.00  LINEAR    3.57948E-01    -8.05    1.04525E-13    -5.79
   61.00   360.00     -10.98 -999.99  -10.98    0.00000     0.00  LINEAR    3.37966E-01   -15.19    1.01256E-13    -6.42
   62.00   360.00     -11.76 -999.99  -11.76    0.00000     0.00  LINEAR    3.08774E-01   -23.70    9.21251E-14    -7.34
   63.00   360.00     -12.76 -999.99  -12.76    0.00000     0.00  LINEAR    2.75252E-01   -34.30    7.74557E-14    -9.00
   64.00   360.00     -13.83 -999.99  -13.83    0.00000     0.00  LINEAR    2.43399E-01   -47.62    5.80565E-14   -12.52
   65.00   360.00     -14.74 -999.99  -14.74    0.00000     0.00  LINEAR    2.19201E-01   -63.72    3.55259E-14   -22.03
   66.00   360.00     -15.26 -999.99  -15.26    0.00000     0.00  LINEAR    2.06283E-01   -81.44    1.58864E-14   -65.33
   67.00   360.00     -15.38 -999.99  -15.38    0.00000     0.00  LINEAR    2.03572E-01   -98.75    2.60445E-14  -142.35
   68.00   360.00     -15.28 -999.99  -15.28    0.00000     0.00  LINEAR    2.06001E-01  -114.20    5.02683E-14  -159.46
   69.00   360.00     -15.20 -999.99  -15.20    0.00000     0.00  LINEAR    2.07900E-01  -127.71    7.35644E-14  -164.70
   70.00   360.00     -15.30 -999.99  -15.30    0.00000     0.00  LINEAR    2.05545E-01  -140.00    9.30013E-14  -166.98
   71.00   360.00     -15.63 -999.99  -15.63    0.00000     0.00  LINEAR    1.97820E-01  -152.03    1.06877E-13  -168.15
   72.00   360.00     -16.17 -999.99  -16.17    0.00000     0.00  LINEAR    1.85922E-01  -164.72    1.13995E-13  -168.83
   73.00   360.00     -16.81 -999.99  -16.81    0.00000     0.00  LINEAR    1.72682E-01  -178.71    1.13646E-13  -169.34
   74.00   360.00     -17.39 -999.99  -17.39    0.00000     0.00  LINEAR    1.61462E-01   165.90    1.05645E-13  -169.86
   75.00   360.00     -17.77 -999.99  -17.77    0.00000     0.00  LINEAR    1.54513E-01   149.92    9.03601E-14  -170.63
   76.00   360.00     -17.94 -999.99  -17.94    0.00000     0.00  LINEAR    1.51528E-01   134.74    6.87178E-14  -172.16
   77.00   360.00     -18.05 -999.99  -18.05    0.00000     0.00  LINEAR    1.49753E-01   121.43    4.22236E-14  -176.22
   78.00   360.00     -18.29 -999.99  -18.29    0.00000     0.00  LINEAR    1.45632E-01   110.26    1.39020E-14   160.17
   79.00   360.00     -18.86 -999.99  -18.86    0.00000     0.00  LINEAR    1.36431E-01   100.82    2.12472E-14    36.55
   80.00   360.00     -19.90 -999.99  -19.90    0.00000     0.00  LINEAR    1.20990E-01    92.36    5.05069E-14    23.91
   81.00   360.00     -21.57 -999.99  -21.57    0.00000     0.00  LINEAR    9.98321E-02    83.86    7.72178E-14    20.92
   82.00   360.00     -24.05 -999.99  -24.05    0.00000     0.00  LINEAR    7.50351E-02    73.59    9.88244E-14    19.71
   83.00   360.00     -27.53 -999.99  -27.53    0.00000     0.00  LINEAR    5.02854E-02    57.60    1.13585E-13    19.13
   84.00   360.00     -31.45 -999.99  -31.45    0.00000     0.00  LINEAR    3.19913E-02    26.57    1.20288E-13    18.83
   85.00   360.00     -32.42 -999.99  -32.42    0.00000     0.00  LINEAR    2.86181E-02   -18.51    1.18309E-13    18.68
   86.00   360.00     -30.85 -999.99  -30.85    0.00000     0.00  LINEAR    3.43025E-02   -46.79    1.07660E-13    18.61
   87.00   360.00     -30.25 -999.99  -30.25    0.00000     0.00  LINEAR    3.67270E-02   -59.75    8.89955E-14    18.58
   88.00   360.00     -31.57 -999.99  -31.57    0.00000     0.00  LINEAR    3.15597E-02   -66.10    6.35778E-14    18.57
   89.00   360.00     -36.14 -999.99  -36.14    0.00000     0.00  LINEAR    1.86545E-02   -69.19    3.31877E-14    18.57






 ***** INPUT LINE  6  EN   0    0    0    0  0.00000E+00  0.00000E+00  0.00000E+00  0.00000E+00  0.00000E+00  0.00000E+00

Sommerfeld integral tables written in previous run:
Potentials: 11 12 13 14 15
E and H:

 RUN TIME =     0.980
