1
 x13



                                ***********************************************
                                *                                             *
                                *  NUMERICAL ELECTROMAGNETICS CODE (NEC-5)    *
                                *                                             *
                                ***********************************************




                      **********************************************************

                                                                                                       

                      **********************************************************





                                 - - - STRUCTURE SPECIFICATION - - -

                                     COORDINATES MUST BE INPUT IN
                                     METERS OR BE SCALED TO METERS
                                     BEFORE STRUCTURE INPUT IS ENDED

 Model definition commands:

 GW    1    13 -1.48600E+00  0.00000E+00  1.50000E+01  1.48550E+00  0.00000E+00  1.50000E+01  7.95000E-03
 GW    2    13 -1.43600E+00  1.49500E+00  1.50000E+01  1.43550E+00  1.49500E+00  1.50000E+01  7.95000E-03
 GW    3    13 -1.33100E+00  3.22500E+00  1.50000E+01  1.33050E+00  3.22500E+00  1.50000E+01  7.95000E-03
 GW    4    13 -1.32000E+00  5.65400E+00  1.50000E+01  1.31950E+00  5.65400E+00  1.50000E+01  7.95000E-03
 GW    5    13 -1.32400E+00  7.58800E+00  1.50000E+01  1.32350E+00  7.58800E+00  1.50000E+01  7.95000E-03
 GW    6    13 -1.19300E+00  1.01120E+01  1.50000E+01  1.19250E+00  1.01120E+01  1.50000E+01  7.95000E-03
 GW    7    13 -1.48600E+00  0.00000E+00  1.50000E+01  1.48550E+00  0.00000E+00  1.50000E+01  7.95000E-03
 GW    8    13 -1.43600E+00  1.49500E+00  1.50000E+01  1.43550E+00  1.49500E+00  1.50000E+01  7.95000E-03
 GW    9    13 -1.33100E+00  3.22500E+00  1.50000E+01  1.33050E+00  3.22500E+00  1.50000E+01  7.95000E-03
 GW   10    13 -1.32000E+00  5.65400E+00  1.50000E+01  1.31950E+00  5.65400E+00  1.50000E+01  7.95000E-03
 GW   11    13 -1.32400E+00  7.58800E+00  1.50000E+01  1.32350E+00  7.58800E+00  1.50000E+01  7.95000E-03
 GW   12    13 -1.19300E+00  1.01120E+01  1.50000E+01  1.19250E+00  1.01120E+01  1.50000E+01  7.95000E-03
 GM    0    0  0.00000E+00  0.00000E+00  0.00000E+00  1.81680E+01  0.00000E+00  0.00000E+00    7    1   12   13
 GE    1    0

   GROUND PLANE SPECIFIED.

   WHERE WIRE ENDS TOUCH GROUND, CURRENT WILL BE INTERPOLATED TO IMAGE IN GROUND PLANE.


 Number of nodes :   168
 Number of wire elements :   156
 Number of patch elements:     0
 Number unknowns:   144




 ***** INPUT LINE  1  EX   0    2    7    0  1.00000E+00  0.00000E+00  0.00000E+00  0.00000E+00  0.00000E+00  0.00000E+00
 ***** INPUT LINE  2  EX   0    8    7    0  1.00000E+00  0.00000E+00  0.00000E+00  0.00000E+00  0.00000E+00  0.00000E+00
 ***** INPUT LINE  3  GN   2    0    0    0  1.00000E+01  2.00000E-03  0.00000E+00  0.00000E+00  0.00000E+00  0.00000E+00
 ***** INPUT LINE  4  FR   0    1    0    0  4.95000E+01  0.00000E+00  0.00000E+00  0.00000E+00  0.00000E+00  0.00000E+00
 ***** INPUT LINE  5  RP   0   90  361 1000  0.00000E+00  0.00000E+00  1.00000E+00  1.00000E+00  0.00000E+00  0.00000E+00




                                 - - - - - - FREQUENCY - - - - - -

                                    FREQUENCY= 4.9500E+01 MHZ
                                    WAVELENGTH= 6.0566E+00 METERS



                                  - - - ANTENNA ENVIRONMENT - - -


 GMPINO: Unable to open file SOMMPD.NEX                              
 Will compute Sommerfeld-ground tables
                                        FINITE GROUND.  SOMMERFELD SOLUTION
                                        RELATIVE DIELECTRIC CONST.= 10.000
                                        CONDUCTIVITY= 2.000E-03 MHOS/METER
                                        COMPLEX DIELECTRIC CONSTANT= 1.00000E+01-7.26303E-01



                               - - - STRUCTURE IMPEDANCE LOADING - - -

                                   THIS STRUCTURE IS NOT LOADED
ALLOCATE CM:          20736



                                - - - MATRIX TIMING - - -

                        FILL=    0.070 SEC.,  FACTOR=    0.000 SEC.



                                          - - - ANTENNA INPUT PARAMETERS - - -

   TAG   SEG.    VOLTAGE (VOLTS)         CURRENT (AMPS)         IMPEDANCE (OHMS)        ADMITTANCE (MHOS)      POWER
   NO.   NO.    REAL        IMAG.       REAL        IMAG.       REAL        IMAG.       REAL        IMAG.     (WATTS)
   2    20 1  1.0000E+00  0.0000E+00  2.1969E-02 -6.0460E-03  4.2314E+01  1.1645E+01  2.1969E-02 -6.0460E-03  1.0984E-02
   8    98 1  1.0000E+00  0.0000E+00  2.1969E-02 -6.0460E-03  4.2314E+01  1.1645E+01  2.1969E-02 -6.0460E-03  1.0985E-02



                                       - - - Wire Currents - - -

                             Lengths normalized by wavelength (or 2.*pi/CABS(k))

  Elem.  Tag            Coord. of seg. center          Seg.            - - - Current (Amps) - - -
   No.   No.     X            Y            Z           Length       Real         Imag.        Mag.         Phase
      1    1 -2.26483E-01  0.00000E+00  2.47665E+00  3.77404E-02 -8.65226E-04  1.28767E-03  1.55136E-03  123.8983
      2    1 -1.88743E-01  0.00000E+00  2.47665E+00  3.77404E-02 -2.44032E-03  3.62016E-03  4.36586E-03  123.9837
      3    1 -1.51003E-01  0.00000E+00  2.47665E+00  3.77404E-02 -3.75556E-03  5.54796E-03  6.69956E-03  124.0951
      4    1 -1.13262E-01  0.00000E+00  2.47665E+00  3.77404E-02 -4.84185E-03  7.12737E-03  8.61644E-03  124.1895
      5    1 -7.55220E-02  0.00000E+00  2.47665E+00  3.77404E-02 -5.65743E-03  8.30580E-03  1.00495E-02  124.2604
      6    1 -3.77816E-02  0.00000E+00  2.47665E+00  3.77404E-02 -6.16370E-03  9.03409E-03  1.09365E-02  124.3046
      7    1 -4.12775E-05  0.00000E+00  2.47665E+00  3.77404E-02 -6.33495E-03  9.27966E-03  1.12358E-02  124.3202
      8    1  3.76991E-02  0.00000E+00  2.47665E+00  3.77404E-02 -6.16231E-03  9.03140E-03  1.09334E-02  124.3065
      9    1  7.54394E-02  0.00000E+00  2.47665E+00  3.77404E-02 -5.65485E-03  8.30098E-03  1.00441E-02  124.2637
     10    1  1.13180E-01  0.00000E+00  2.47665E+00  3.77404E-02 -4.83847E-03  7.12140E-03  8.60960E-03  124.1933
     11    1  1.50920E-01  0.00000E+00  2.47665E+00  3.77404E-02 -3.75198E-03  5.54206E-03  6.69266E-03  124.0980
     12    1  1.88660E-01  0.00000E+00  2.47665E+00  3.77404E-02 -2.43733E-03  3.61561E-03  4.36041E-03  123.9844
     13    1  2.26401E-01  0.00000E+00  2.47665E+00  3.77404E-02 -8.63988E-04  1.28590E-03  1.54920E-03  123.8969
     14    2 -2.18863E-01  2.46840E-01  2.47665E+00  3.64703E-02  3.08197E-03 -1.11825E-03  3.27857E-03  -19.9426
     15    2 -1.82393E-01  2.46840E-01  2.47665E+00  3.64703E-02  8.64088E-03 -3.08655E-03  9.17560E-03  -19.6569
     16    2 -1.45922E-01  2.46840E-01  2.47665E+00  3.64703E-02  1.31996E-02 -4.60016E-03  1.39782E-02  -19.2139
     17    2 -1.09452E-01  2.46840E-01  2.47665E+00  3.64703E-02  1.69172E-02 -5.72467E-03  1.78596E-02  -18.6955
     18    2 -7.29818E-02  2.46840E-01  2.47665E+00  3.64703E-02  1.96832E-02 -6.42403E-03  2.07050E-02  -18.0752
     19    2 -3.65116E-02  2.46840E-01  2.47665E+00  3.64703E-02  2.13908E-02 -6.65956E-03  2.24035E-02  -17.2928
     20    2 -4.12775E-05  2.46840E-01  2.47665E+00  3.64703E-02  2.19687E-02 -6.35136E-03  2.28684E-02  -16.1251
     21    2  3.64290E-02  2.46840E-01  2.47665E+00  3.64703E-02  2.13918E-02 -6.13834E-03  2.22551E-02  -16.0107
     22    2  7.28993E-02  2.46840E-01  2.47665E+00  3.64703E-02  1.96850E-02 -6.03012E-03  2.05879E-02  -17.0314
     23    2  1.09370E-01  2.46840E-01  2.47665E+00  3.64703E-02  1.69196E-02 -5.40589E-03  1.77622E-02  -17.7189
     24    2  1.45840E-01  2.46840E-01  2.47665E+00  3.64703E-02  1.32022E-02 -4.35944E-03  1.39033E-02  -18.2736
     25    2  1.82310E-01  2.46840E-01  2.47665E+00  3.64703E-02  8.64305E-03 -2.93206E-03  9.12684E-03  -18.7389
     26    2  2.18780E-01  2.46840E-01  2.47665E+00  3.64703E-02  3.08287E-03 -1.06371E-03  3.26122E-03  -19.0364
     27    3 -2.02860E-01  5.32480E-01  2.47665E+00  3.38031E-02 -2.09407E-03 -4.06883E-04  2.13324E-03 -169.0043
     28    3 -1.69057E-01  5.32480E-01  2.47665E+00  3.38031E-02 -5.83451E-03 -1.13303E-03  5.94351E-03 -169.0103
     29    3 -1.35254E-01  5.32480E-01  2.47665E+00  3.38031E-02 -8.84640E-03 -1.71664E-03  9.01142E-03 -169.0183
     30    3 -1.01451E-01  5.32480E-01  2.47665E+00  3.38031E-02 -1.12748E-02 -2.18648E-03  1.14849E-02 -169.0251
     31    3 -6.76475E-02  5.32480E-01  2.47665E+00  3.38031E-02 -1.30673E-02 -2.53295E-03  1.33105E-02 -169.0299
     32    3 -3.38444E-02  5.32480E-01  2.47665E+00  3.38031E-02 -1.41683E-02 -2.74576E-03  1.44319E-02 -169.0322
     33    3 -4.12775E-05  5.32480E-01  2.47665E+00  3.38031E-02 -1.45398E-02 -2.81782E-03  1.48103E-02 -169.0320
     34    3  3.37618E-02  5.32480E-01  2.47665E+00  3.38031E-02 -1.41684E-02 -2.74659E-03  1.44322E-02 -169.0291
     35    3  6.75649E-02  5.32480E-01  2.47665E+00  3.38031E-02 -1.30675E-02 -2.53444E-03  1.33110E-02 -169.0238
     36    3  1.01368E-01  5.32480E-01  2.47665E+00  3.38031E-02 -1.12751E-02 -2.18834E-03  1.14855E-02 -169.0163
     37    3  1.35171E-01  5.32480E-01  2.47665E+00  3.38031E-02 -8.84663E-03 -1.71849E-03  9.01200E-03 -169.0070
     38    3  1.68974E-01  5.32480E-01  2.47665E+00  3.38031E-02 -5.83466E-03 -1.13447E-03  5.94393E-03 -168.9969
     39    3  2.02777E-01  5.32480E-01  2.47665E+00  3.38031E-02 -2.09412E-03 -4.07452E-04  2.13339E-03 -168.9896
     40    4 -2.01183E-01  9.33532E-01  2.47665E+00  3.35237E-02  1.25435E-03  1.16754E-03  1.71363E-03   42.9471
     41    4 -1.67660E-01  9.33532E-01  2.47665E+00  3.35237E-02  3.48927E-03  3.25045E-03  4.76869E-03   42.9706
     42    4 -1.34136E-01  9.33532E-01  2.47665E+00  3.35237E-02  5.27997E-03  4.92373E-03  7.21950E-03   43.0005
     43    4 -1.00612E-01  9.33532E-01  2.47665E+00  3.35237E-02  6.71884E-03  6.27087E-03  9.19057E-03   43.0248
     44    4 -6.70887E-02  9.33532E-01  2.47665E+00  3.35237E-02  7.77824E-03  7.26425E-03  1.06429E-02   43.0430
     45    4 -3.35650E-02  9.33532E-01  2.47665E+00  3.35237E-02  8.42785E-03  7.87423E-03  1.15340E-02   43.0550
     46    4 -4.12775E-05  9.33532E-01  2.47665E+00  3.35237E-02  8.64672E-03  8.08036E-03  1.18346E-02   43.0608
     47    4  3.34824E-02  9.33532E-01  2.47665E+00  3.35237E-02  8.42753E-03  7.87542E-03  1.15345E-02   43.0604
     48    4  6.70061E-02  9.33532E-01  2.47665E+00  3.35237E-02  7.77767E-03  7.26644E-03  1.06439E-02   43.0537
     49    4  1.00530E-01  9.33532E-01  2.47665E+00  3.35237E-02  6.71810E-03  6.27368E-03  9.19195E-03   43.0408
     50    4  1.34054E-01  9.33532E-01  2.47665E+00  3.35237E-02  5.27920E-03  4.92665E-03  7.22093E-03   43.0216
     51    4  1.67577E-01  9.33532E-01  2.47665E+00  3.35237E-02  3.48864E-03  3.25282E-03  4.76985E-03   42.9966
     52    4  2.01101E-01  9.33532E-01  2.47665E+00  3.35237E-02  1.25410E-03  1.16850E-03  1.71410E-03   42.9763
     53    5 -2.01793E-01  1.25286E+00  2.47665E+00  3.36253E-02 -3.95969E-04 -1.51769E-03  1.56849E-03 -104.6227
     54    5 -1.68168E-01  1.25286E+00  2.47665E+00  3.36253E-02 -1.10196E-03 -4.22328E-03  4.36467E-03 -104.6239
     55    5 -1.34542E-01  1.25286E+00  2.47665E+00  3.36253E-02 -1.66837E-03 -6.39329E-03  6.60739E-03 -104.6256
     56    5 -1.00917E-01  1.25286E+00  2.47665E+00  3.36253E-02 -2.12385E-03 -8.13794E-03  8.41052E-03 -104.6269
     57    5 -6.72919E-02  1.25286E+00  2.47665E+00  3.36253E-02 -2.45923E-03 -9.42281E-03  9.73844E-03 -104.6271
     58    5 -3.36666E-02  1.25286E+00  2.47665E+00  3.36253E-02 -2.66458E-03 -1.02105E-02  1.05525E-02 -104.6259
     59    5 -4.12775E-05  1.25286E+00  2.47665E+00  3.36253E-02 -2.73312E-03 -1.04755E-02  1.08261E-02 -104.6229
     60    5  3.35840E-02  1.25286E+00  2.47665E+00  3.36253E-02 -2.66258E-03 -1.02087E-02  1.05502E-02 -104.6180
     61    5  6.72093E-02  1.25286E+00  2.47665E+00  3.36253E-02 -2.45553E-03 -9.41934E-03  9.73414E-03 -104.6113
     62    5  1.00835E-01  1.25286E+00  2.47665E+00  3.36253E-02 -2.11906E-03 -8.13345E-03  8.40496E-03 -104.6030
     63    5  1.34460E-01  1.25286E+00  2.47665E+00  3.36253E-02 -1.66336E-03 -6.38860E-03  6.60158E-03 -104.5937
     64    5  1.68085E-01  1.25286E+00  2.47665E+00  3.36253E-02 -1.09783E-03 -4.21943E-03  4.35991E-03 -104.5842
     65    5  2.01711E-01  1.25286E+00  2.47665E+00  3.36253E-02 -3.94284E-04 -1.51612E-03  1.56655E-03 -104.5775
     66    6 -1.81827E-01  1.66959E+00  2.47665E+00  3.02977E-02 -2.79671E-04  5.66549E-04  6.31818E-04  116.2727
     67    6 -1.51530E-01  1.66959E+00  2.47665E+00  3.02977E-02 -7.71868E-04  1.56404E-03  1.74413E-03  116.2668
     68    6 -1.21232E-01  1.66959E+00  2.47665E+00  3.02977E-02 -1.15688E-03  2.34523E-03  2.61505E-03  116.2566
     69    6 -9.09344E-02  1.66959E+00  2.47665E+00  3.02977E-02 -1.46133E-03  2.96403E-03  3.30468E-03  116.2442
     70    6 -6.06367E-02  1.66959E+00  2.47665E+00  3.02977E-02 -1.68256E-03  3.41489E-03  3.80690E-03  116.2301
     71    6 -3.03390E-02  1.66959E+00  2.47665E+00  3.02977E-02 -1.81651E-03  3.68924E-03  4.11220E-03  116.2148
     72    6 -4.12775E-05  1.66959E+00  2.47665E+00  3.02977E-02 -1.86026E-03  3.78082E-03  4.21369E-03  116.1984
     73    6  3.02564E-02  1.66959E+00  2.47665E+00  3.02977E-02 -1.81295E-03  3.68748E-03  4.10905E-03  116.1810
     74    6  6.05541E-02  1.66959E+00  2.47665E+00  3.02977E-02 -1.67596E-03  3.41164E-03  3.80107E-03  116.1625
     75    6  9.08518E-02  1.66959E+00  2.47665E+00  3.02977E-02 -1.45272E-03  2.95980E-03  3.29709E-03  116.1426
     76    6  1.21150E-01  1.66959E+00  2.47665E+00  3.02977E-02 -1.14779E-03  2.34077E-03  2.60703E-03  116.1210
     77    6  1.51447E-01  1.66959E+00  2.47665E+00  3.02977E-02 -7.64311E-04  1.56033E-03  1.73747E-03  116.0975
     78    6  1.81745E-01  1.66959E+00  2.47665E+00  3.02977E-02 -2.76557E-04  5.65021E-04  6.29073E-04  116.0800
     79    7  2.77324E+00  0.00000E+00  2.47665E+00  3.77404E-02 -8.64418E-04  1.28687E-03  1.55024E-03  123.8901
     80    7  2.81098E+00  0.00000E+00  2.47665E+00  3.77404E-02 -2.43838E-03  3.61817E-03  4.36313E-03  123.9770
     81    7  2.84872E+00  0.00000E+00  2.47665E+00  3.77404E-02 -3.75325E-03  5.54551E-03  6.69623E-03  124.0905
     82    7  2.88646E+00  0.00000E+00  2.47665E+00  3.77404E-02 -4.83968E-03  7.12497E-03  8.61322E-03  124.1865
     83    7  2.92420E+00  0.00000E+00  2.47665E+00  3.77404E-02 -5.65576E-03  8.30386E-03  1.00470E-02  124.2588
     84    7  2.96194E+00  0.00000E+00  2.47665E+00  3.77404E-02 -6.16278E-03  9.03291E-03  1.09350E-02  124.3041
     85    7  2.99968E+00  0.00000E+00  2.47665E+00  3.77404E-02 -6.33490E-03  9.27941E-03  1.12356E-02  124.3207
     86    7  3.03742E+00  0.00000E+00  2.47665E+00  3.77404E-02 -6.16312E-03  9.03209E-03  1.09345E-02  124.3080
     87    7  3.07516E+00  0.00000E+00  2.47665E+00  3.77404E-02 -5.65642E-03  8.30247E-03  1.00462E-02  124.2663
     88    7  3.11290E+00  0.00000E+00  2.47665E+00  3.77404E-02 -4.84056E-03  7.12343E-03  8.61245E-03  124.1971
     89    7  3.15064E+00  0.00000E+00  2.47665E+00  3.77404E-02 -3.75422E-03  5.54423E-03  6.69572E-03  124.1035
     90    7  3.18838E+00  0.00000E+00  2.47665E+00  3.77404E-02 -2.43922E-03  3.61741E-03  4.36297E-03  123.9918
     91    7  3.22612E+00  0.00000E+00  2.47665E+00  3.77404E-02 -8.64776E-04  1.28664E-03  1.55025E-03  123.9058
     92    8  2.78086E+00  2.46840E-01  2.47665E+00  3.64703E-02  3.08231E-03 -1.11865E-03  3.27903E-03  -19.9472
     93    8  2.81733E+00  2.46840E-01  2.47665E+00  3.64703E-02  8.64169E-03 -3.08755E-03  9.17669E-03  -19.6610
     94    8  2.85380E+00  2.46840E-01  2.47665E+00  3.64703E-02  1.32005E-02 -4.60139E-03  1.39795E-02  -19.2173
     95    8  2.89027E+00  2.46840E-01  2.47665E+00  3.64703E-02  1.69181E-02 -5.72588E-03  1.78608E-02  -18.6982
     96    8  2.92674E+00  2.46840E-01  2.47665E+00  3.64703E-02  1.96839E-02 -6.42503E-03  2.07060E-02  -18.0772
     97    8  2.96321E+00  2.46840E-01  2.47665E+00  3.64703E-02  2.13913E-02 -6.66021E-03  2.24042E-02  -17.2940
     98    8  2.99968E+00  2.46840E-01  2.47665E+00  3.64703E-02  2.19689E-02 -6.35158E-03  2.28687E-02  -16.1255
     99    8  3.03615E+00  2.46840E-01  2.47665E+00  3.64703E-02  2.13917E-02 -6.13812E-03  2.22550E-02  -16.0102
    100    8  3.07262E+00  2.46840E-01  2.47665E+00  3.64703E-02  1.96846E-02 -6.02951E-03  2.05874E-02  -17.0301
    101    8  3.10909E+00  2.46840E-01  2.47665E+00  3.64703E-02  1.69191E-02 -5.40500E-03  1.77614E-02  -17.7167
    102    8  3.14556E+00  2.46840E-01  2.47665E+00  3.64703E-02  1.32015E-02 -4.35846E-03  1.39023E-02  -18.2706
    103    8  3.18203E+00  2.46840E-01  2.47665E+00  3.64703E-02  8.64241E-03 -2.93122E-03  9.12597E-03  -18.7352
    104    8  3.21850E+00  2.46840E-01  2.47665E+00  3.64703E-02  3.08259E-03 -1.06336E-03  3.26084E-03  -19.0322
    105    9  2.79686E+00  5.32480E-01  2.47665E+00  3.38031E-02 -2.09439E-03 -4.06818E-04  2.13354E-03 -169.0077
    106    9  2.83066E+00  5.32480E-01  2.47665E+00  3.38031E-02 -5.83532E-03 -1.13286E-03  5.94427E-03 -169.0134
    107    9  2.86447E+00  5.32480E-01  2.47665E+00  3.38031E-02 -8.84742E-03 -1.71640E-03  9.01238E-03 -169.0210
    108    9  2.89827E+00  5.32480E-01  2.47665E+00  3.38031E-02 -1.12758E-02 -2.18624E-03  1.14858E-02 -169.0272
    109    9  2.93207E+00  5.32480E-01  2.47665E+00  3.38031E-02 -1.30681E-02 -2.53276E-03  1.33113E-02 -169.0314
    110    9  2.96588E+00  5.32480E-01  2.47665E+00  3.38031E-02 -1.41687E-02 -2.74566E-03  1.44323E-02 -169.0330
    111    9  2.99968E+00  5.32480E-01  2.47665E+00  3.38031E-02 -1.45398E-02 -2.81784E-03  1.48103E-02 -169.0319
    112    9  3.03348E+00  5.32480E-01  2.47665E+00  3.38031E-02 -1.41680E-02 -2.74671E-03  1.44318E-02 -169.0283
    113    9  3.06728E+00  5.32480E-01  2.47665E+00  3.38031E-02 -1.30667E-02 -2.53465E-03  1.33103E-02 -169.0222
    114    9  3.10109E+00  5.32480E-01  2.47665E+00  3.38031E-02 -1.12741E-02 -2.18859E-03  1.14845E-02 -169.0140
    115    9  3.13489E+00  5.32480E-01  2.47665E+00  3.38031E-02 -8.84559E-03 -1.71873E-03  9.01102E-03 -169.0042
    116    9  3.16869E+00  5.32480E-01  2.47665E+00  3.38031E-02 -5.83384E-03 -1.13465E-03  5.94315E-03 -168.9937
    117    9  3.20250E+00  5.32480E-01  2.47665E+00  3.38031E-02 -2.09380E-03 -4.07515E-04  2.13308E-03 -168.9862
    118   10  2.79854E+00  9.33532E-01  2.47665E+00  3.35237E-02  1.25422E-03  1.16865E-03  1.71430E-03   42.9774
    119   10  2.83206E+00  9.33532E-01  2.47665E+00  3.35237E-02  3.48895E-03  3.25322E-03  4.77034E-03   42.9976
    120   10  2.86558E+00  9.33532E-01  2.47665E+00  3.35237E-02  5.27956E-03  4.92717E-03  7.22155E-03   43.0226
    121   10  2.89911E+00  9.33532E-01  2.47665E+00  3.35237E-02  6.71846E-03  6.27422E-03  9.19258E-03   43.0417
    122   10  2.93263E+00  9.33532E-01  2.47665E+00  3.35237E-02  7.77795E-03  7.26692E-03  1.06445E-02   43.0546
    123   10  2.96615E+00  9.33532E-01  2.47665E+00  3.35237E-02  8.42771E-03  7.87580E-03  1.15349E-02   43.0611
    124   10  2.99968E+00  9.33532E-01  2.47665E+00  3.35237E-02  8.64677E-03  8.08060E-03  1.18348E-02   43.0614
    125   10  3.03320E+00  9.33532E-01  2.47665E+00  3.35237E-02  8.42777E-03  7.87431E-03  1.15340E-02   43.0555
    126   10  3.06673E+00  9.33532E-01  2.47665E+00  3.35237E-02  7.77806E-03  7.26419E-03  1.06427E-02   43.0435
    127   10  3.10025E+00  9.33532E-01  2.47665E+00  3.35237E-02  6.71858E-03  6.27070E-03  9.19027E-03   43.0252
    128   10  3.13377E+00  9.33532E-01  2.47665E+00  3.35237E-02  5.27968E-03  4.92351E-03  7.21914E-03   43.0008
    129   10  3.16730E+00  9.33532E-01  2.47665E+00  3.35237E-02  3.48902E-03  3.25025E-03  4.76837E-03   42.9708
    130   10  3.20082E+00  9.33532E-01  2.47665E+00  3.35237E-02  1.25425E-03  1.16745E-03  1.71350E-03   42.9473
    131   11  2.79793E+00  1.25286E+00  2.47665E+00  3.36253E-02 -3.94212E-04 -1.51606E-03  1.56648E-03 -104.5755
    132   11  2.83155E+00  1.25286E+00  2.47665E+00  3.36253E-02 -1.09765E-03 -4.21924E-03  4.35968E-03 -104.5825
    133   11  2.86518E+00  1.25286E+00  2.47665E+00  3.36253E-02 -1.66312E-03 -6.38826E-03  6.60120E-03 -104.5925
    134   11  2.89880E+00  1.25286E+00  2.47665E+00  3.36253E-02 -2.11881E-03 -8.13294E-03  8.40441E-03 -104.6022
    135   11  2.93243E+00  1.25286E+00  2.47665E+00  3.36253E-02 -2.45529E-03 -9.41867E-03  9.73344E-03 -104.6109
    136   11  2.96605E+00  1.25286E+00  2.47665E+00  3.36253E-02 -2.66237E-03 -1.02079E-02  1.05493E-02 -104.6180
    137   11  2.99968E+00  1.25286E+00  2.47665E+00  3.36253E-02 -2.73297E-03 -1.04746E-02  1.08252E-02 -104.6233
    138   11  3.03330E+00  1.25286E+00  2.47665E+00  3.36253E-02 -2.66448E-03 -1.02096E-02  1.05515E-02 -104.6267
    139   11  3.06693E+00  1.25286E+00  2.47665E+00  3.36253E-02 -2.45919E-03 -9.42183E-03  9.73748E-03 -104.6284
    140   11  3.10055E+00  1.25286E+00  2.47665E+00  3.36253E-02 -2.12386E-03 -8.13703E-03  8.40964E-03 -104.6285
    141   11  3.13418E+00  1.25286E+00  2.47665E+00  3.36253E-02 -1.66841E-03 -6.39252E-03  6.60666E-03 -104.6276
    142   11  3.16781E+00  1.25286E+00  2.47665E+00  3.36253E-02 -1.10201E-03 -4.22273E-03  4.36416E-03 -104.6263
    143   11  3.20143E+00  1.25286E+00  2.47665E+00  3.36253E-02 -3.95992E-04 -1.51748E-03  1.56830E-03 -104.6253
    144   12  2.81789E+00  1.66959E+00  2.47665E+00  3.02977E-02 -2.76481E-04  5.65117E-04  6.29125E-04  116.0700
    145   12  2.84819E+00  1.66959E+00  2.47665E+00  3.02977E-02 -7.64081E-04  1.56059E-03  1.73760E-03  116.0869
    146   12  2.87849E+00  1.66959E+00  2.47665E+00  3.02977E-02 -1.14741E-03  2.34115E-03  2.60721E-03  116.1096
    147   12  2.90879E+00  1.66959E+00  2.47665E+00  3.02977E-02 -1.45218E-03  2.96027E-03  3.29728E-03  116.1305
    148   12  2.93908E+00  1.66959E+00  2.47665E+00  3.02977E-02 -1.67528E-03  3.41217E-03  3.80125E-03  116.1497
    149   12  2.96938E+00  1.66959E+00  2.47665E+00  3.02977E-02 -1.81215E-03  3.68804E-03  4.10920E-03  116.1676
    150   12  2.99968E+00  1.66959E+00  2.47665E+00  3.02977E-02 -1.85938E-03  3.78137E-03  4.21380E-03  116.1843
    151   12  3.02998E+00  1.66959E+00  2.47665E+00  3.02977E-02 -1.81559E-03  3.68976E-03  4.11226E-03  116.2000
    152   12  3.06027E+00  1.66959E+00  2.47665E+00  3.02977E-02 -1.68166E-03  3.41536E-03  3.80692E-03  116.2148
    153   12  3.09057E+00  1.66959E+00  2.47665E+00  3.02977E-02 -1.46049E-03  2.96442E-03  3.30467E-03  116.2282
    154   12  3.12087E+00  1.66959E+00  2.47665E+00  3.02977E-02 -1.15618E-03  2.34552E-03  2.61500E-03  116.2401
    155   12  3.15117E+00  1.66959E+00  2.47665E+00  3.02977E-02 -7.71378E-04  1.56422E-03  1.74408E-03  116.2497
    156   12  3.18146E+00  1.66959E+00  2.47665E+00  3.02977E-02 -2.79487E-04  5.66614E-04  6.31795E-04  116.2552



                                        - - - POWER BUDGET - - -

                                           INPUT POWER   = 2.1969E-02 WATTS
                                           RADIATED POWER= 2.1969E-02 WATTS
                                           WIRE LOSS     = 0.0000E+00 WATTS
                                           EFFICIENCY    = 100.00 PERCENT



                                                - - - RADIATION PATTERNS - - -

  - - ANGLES - -          - POWER GAINS -        - - - POLARIZATION - - -    - - - E(THETA) - - -    - - - E(PHI) - - -
  THETA     PHI        VERT.   HOR.    TOTAL      AXIAL     TILT   SENSE     MAGNITUDE    PHASE      MAGNITUDE    PHASE 
 DEGREES  DEGREES       DB      DB      DB        RATIO     DEG.               VOLTS     DEGREES       VOLTS     DEGREES
    0.00     0.00     -10.16 -999.99  -10.16    0.00000     0.00  LINEAR    3.56343E-01    74.75    0.00000E+00     0.00
    1.00     0.00     -10.26 -999.99  -10.26    0.00000     0.00  LINEAR    3.52225E-01    83.81    0.00000E+00     0.00
    2.00     0.00     -10.56 -999.99  -10.56    0.00000     0.00  LINEAR    3.40195E-01    92.15    0.00000E+00     0.00
    3.00     0.00     -11.08 -999.99  -11.08    0.00000     0.00  LINEAR    3.20444E-01    99.79    0.00000E+00     0.00
    4.00     0.00     -11.85 -999.99  -11.85    0.00000     0.00  LINEAR    2.93195E-01   106.80    0.00000E+00     0.00
    5.00     0.00     -12.94 -999.99  -12.94    0.00000     0.00  LINEAR    2.58593E-01   113.26    0.00000E+00     0.00
    6.00     0.00     -14.48 -999.99  -14.48    0.00000     0.00  LINEAR    2.16614E-01   119.26    0.00000E+00     0.00
    7.00     0.00     -16.74 -999.99  -16.74    0.00000     0.00  LINEAR    1.67027E-01   124.94    0.00000E+00     0.00
    8.00     0.00     -20.41 -999.99  -20.41    0.00000     0.00  LINEAR    1.09434E-01   130.42    0.00000E+00     0.00
    9.00     0.00     -28.44 -999.99  -28.44    0.00000     0.00  LINEAR    4.34159E-02   135.84    0.00000E+00     0.00
   10.00     0.00     -31.30 -999.99  -31.30    0.00000     0.00  LINEAR    3.12517E-02   -38.91    0.00000E+00     0.00
   11.00     0.00     -20.03 -999.99  -20.03    0.00000     0.00  LINEAR    1.14351E-01   -33.35    0.00000E+00     0.00
   12.00     0.00     -14.96 -999.99  -14.96    0.00000     0.00  LINEAR    2.04990E-01   -27.71    0.00000E+00     0.00
   13.00     0.00     -11.61 -999.99  -11.61    0.00000     0.00  LINEAR    3.01436E-01   -21.89    0.00000E+00     0.00
   14.00     0.00      -9.13 -999.99   -9.13    0.00000     0.00  LINEAR    4.01039E-01   -15.89    0.00000E+00     0.00
   15.00     0.00      -7.21 -999.99   -7.21    0.00000     0.00  LINEAR    5.00273E-01    -9.72    0.00000E+00     0.00
   16.00     0.00      -5.71 -999.99   -5.71    0.00000     0.00  LINEAR    5.94884E-01    -3.39    0.00000E+00     0.00
   17.00     0.00      -4.54 -999.99   -4.54    0.00000     0.00  LINEAR    6.80133E-01     3.07    0.00000E+00     0.00
   18.00     0.00      -3.68 -999.99   -3.68    0.00000     0.00  LINEAR    7.51136E-01     9.63    0.00000E+00     0.00
   19.00     0.00      -3.10 -999.99   -3.10    0.00000     0.00  LINEAR    8.03244E-01    16.27    0.00000E+00     0.00
   20.00     0.00      -2.79 -999.99   -2.79    0.00000     0.00  LINEAR    8.32464E-01    22.95    0.00000E+00     0.00
   21.00     0.00      -2.75 -999.99   -2.75    0.00000     0.00  LINEAR    8.35853E-01    29.64    0.00000E+00     0.00
   22.00     0.00      -3.01 -999.99   -3.01    0.00000     0.00  LINEAR    8.11881E-01    36.31    0.00000E+00     0.00
   23.00     0.00      -3.57 -999.99   -3.57    0.00000     0.00  LINEAR    7.60689E-01    42.92    0.00000E+00     0.00
   24.00     0.00      -4.49 -999.99   -4.49    0.00000     0.00  LINEAR    6.84238E-01    49.43    0.00000E+00     0.00
   25.00     0.00      -5.83 -999.99   -5.83    0.00000     0.00  LINEAR    5.86311E-01    55.79    0.00000E+00     0.00
   26.00     0.00      -7.71 -999.99   -7.71    0.00000     0.00  LINEAR    4.72348E-01    61.96    0.00000E+00     0.00
   27.00     0.00     -10.34 -999.99  -10.34    0.00000     0.00  LINEAR    3.49116E-01    67.86    0.00000E+00     0.00
   28.00     0.00     -14.18 -999.99  -14.18    0.00000     0.00  LINEAR    2.24237E-01    73.40    0.00000E+00     0.00
   29.00     0.00     -20.73 -999.99  -20.73    0.00000     0.00  LINEAR    1.05577E-01    78.46    0.00000E+00     0.00
   30.00     0.00     -66.48 -999.99  -66.48    0.00000     0.00  LINEAR    5.44273E-04    86.86    0.00000E+00     0.00
   31.00     0.00     -22.64 -999.99  -22.64    0.00000     0.00  LINEAR    8.46843E-02   -93.82    0.00000E+00     0.00
   32.00     0.00     -17.91 -999.99  -17.91    0.00000     0.00  LINEAR    1.45981E-01   -91.84    0.00000E+00     0.00
   33.00     0.00     -15.98 -999.99  -15.98    0.00000     0.00  LINEAR    1.82247E-01   -92.09    0.00000E+00     0.00
   34.00     0.00     -15.32 -999.99  -15.32    0.00000     0.00  LINEAR    1.96737E-01   -95.81    0.00000E+00     0.00
   35.00     0.00     -15.22 -999.99  -15.22    0.00000     0.00  LINEAR    1.99011E-01  -104.59    0.00000E+00     0.00
   36.00     0.00     -14.92 -999.99  -14.92    0.00000     0.00  LINEAR    2.06078E-01  -118.83    0.00000E+00     0.00
   37.00     0.00     -13.75 -999.99  -13.75    0.00000     0.00  LINEAR    2.35644E-01  -134.65    0.00000E+00     0.00
   38.00     0.00     -11.90 -999.99  -11.90    0.00000     0.00  LINEAR    2.91486E-01  -146.54    0.00000E+00     0.00
   39.00     0.00     -10.00 -999.99  -10.00    0.00000     0.00  LINEAR    3.63098E-01  -153.15    0.00000E+00     0.00
   40.00     0.00      -8.39 -999.99   -8.39    0.00000     0.00  LINEAR    4.36884E-01  -155.89    0.00000E+00     0.00
   41.00     0.00      -7.19 -999.99   -7.19    0.00000     0.00  LINEAR    5.01477E-01  -156.26    0.00000E+00     0.00
   42.00     0.00      -6.41 -999.99   -6.41    0.00000     0.00  LINEAR    5.48500E-01  -155.27    0.00000E+00     0.00
   43.00     0.00      -6.04 -999.99   -6.04    0.00000     0.00  LINEAR    5.72553E-01  -153.55    0.00000E+00     0.00
   44.00     0.00      -6.06 -999.99   -6.06    0.00000     0.00  LINEAR    5.71193E-01  -151.53    0.00000E+00     0.00
   45.00     0.00      -6.47 -999.99   -6.47    0.00000     0.00  LINEAR    5.44845E-01  -149.53    0.00000E+00     0.00
   46.00     0.00      -7.28 -999.99   -7.28    0.00000     0.00  LINEAR    4.96542E-01  -147.85    0.00000E+00     0.00
   47.00     0.00      -8.50 -999.99   -8.50    0.00000     0.00  LINEAR    4.31477E-01  -146.83    0.00000E+00     0.00
   48.00     0.00     -10.16 -999.99  -10.16    0.00000     0.00  LINEAR    3.56384E-01  -146.90    0.00000E+00     0.00
   49.00     0.00     -12.29 -999.99  -12.29    0.00000     0.00  LINEAR    2.78812E-01  -148.73    0.00000E+00     0.00
   50.00     0.00     -14.90 -999.99  -14.90    0.00000     0.00  LINEAR    2.06370E-01  -153.34    0.00000E+00     0.00
   51.00     0.00     -17.91 -999.99  -17.91    0.00000     0.00  LINEAR    1.45912E-01  -162.24    0.00000E+00     0.00
   52.00     0.00     -21.01 -999.99  -21.01    0.00000     0.00  LINEAR    1.02194E-01  -176.69    0.00000E+00     0.00
   53.00     0.00     -23.70 -999.99  -23.70    0.00000     0.00  LINEAR    7.49348E-02   164.96    0.00000E+00     0.00
   54.00     0.00     -26.14 -999.99  -26.14    0.00000     0.00  LINEAR    5.65935E-02   148.09    0.00000E+00     0.00
   55.00     0.00     -29.70 -999.99  -29.70    0.00000     0.00  LINEAR    3.75895E-02   136.10    0.00000E+00     0.00
   56.00     0.00     -38.84 -999.99  -38.84    0.00000     0.00  LINEAR    1.31119E-02   128.45    0.00000E+00     0.00
   57.00     0.00     -36.80 -999.99  -36.80    0.00000     0.00  LINEAR    1.65890E-02   -56.52    0.00000E+00     0.00
   58.00     0.00     -27.48 -999.99  -27.48    0.00000     0.00  LINEAR    4.85365E-02   -60.06    0.00000E+00     0.00
   59.00     0.00     -23.26 -999.99  -23.26    0.00000     0.00  LINEAR    7.88681E-02   -63.11    0.00000E+00     0.00
   60.00     0.00     -20.85 -999.99  -20.85    0.00000     0.00  LINEAR    1.04027E-01   -66.35    0.00000E+00     0.00
   61.00     0.00     -19.50 -999.99  -19.50    0.00000     0.00  LINEAR    1.21563E-01   -70.41    0.00000E+00     0.00
   62.00     0.00     -18.87 -999.99  -18.87    0.00000     0.00  LINEAR    1.30664E-01   -75.94    0.00000E+00     0.00
   63.00     0.00     -18.76 -999.99  -18.76    0.00000     0.00  LINEAR    1.32452E-01   -83.65    0.00000E+00     0.00
   64.00     0.00     -18.92 -999.99  -18.92    0.00000     0.00  LINEAR    1.29967E-01   -94.18    0.00000E+00     0.00
   65.00     0.00     -19.09 -999.99  -19.09    0.00000     0.00  LINEAR    1.27502E-01  -107.58    0.00000E+00     0.00
   66.00     0.00     -19.00 -999.99  -19.00    0.00000     0.00  LINEAR    1.28832E-01  -122.71    0.00000E+00     0.00
   67.00     0.00     -18.59 -999.99  -18.59    0.00000     0.00  LINEAR    1.34933E-01  -137.51    0.00000E+00     0.00
   68.00     0.00     -18.06 -999.99  -18.06    0.00000     0.00  LINEAR    1.43541E-01  -150.58    0.00000E+00     0.00
   69.00     0.00     -17.61 -999.99  -17.61    0.00000     0.00  LINEAR    1.51088E-01  -161.79    0.00000E+00     0.00
   70.00     0.00     -17.40 -999.99  -17.40    0.00000     0.00  LINEAR    1.54757E-01  -171.89    0.00000E+00     0.00
   71.00     0.00     -17.48 -999.99  -17.48    0.00000     0.00  LINEAR    1.53434E-01   178.16    0.00000E+00     0.00
   72.00     0.00     -17.80 -999.99  -17.80    0.00000     0.00  LINEAR    1.47838E-01   167.46    0.00000E+00     0.00
   73.00     0.00     -18.26 -999.99  -18.26    0.00000     0.00  LINEAR    1.40185E-01   155.35    0.00000E+00     0.00
   74.00     0.00     -18.70 -999.99  -18.70    0.00000     0.00  LINEAR    1.33341E-01   141.74    0.00000E+00     0.00
   75.00     0.00     -18.96 -999.99  -18.96    0.00000     0.00  LINEAR    1.29410E-01   127.43    0.00000E+00     0.00
   76.00     0.00     -19.03 -999.99  -19.03    0.00000     0.00  LINEAR    1.28367E-01   113.81    0.00000E+00     0.00
   77.00     0.00     -19.05 -999.99  -19.05    0.00000     0.00  LINEAR    1.28031E-01   101.97    0.00000E+00     0.00
   78.00     0.00     -19.23 -999.99  -19.23    0.00000     0.00  LINEAR    1.25413E-01    92.15    0.00000E+00     0.00
   79.00     0.00     -19.75 -999.99  -19.75    0.00000     0.00  LINEAR    1.18152E-01    83.96    0.00000E+00     0.00
   80.00     0.00     -20.75 -999.99  -20.75    0.00000     0.00  LINEAR    1.05229E-01    76.64    0.00000E+00     0.00
   81.00     0.00     -22.40 -999.99  -22.40    0.00000     0.00  LINEAR    8.71026E-02    69.17    0.00000E+00     0.00
   82.00     0.00     -24.86 -999.99  -24.86    0.00000     0.00  LINEAR    6.56162E-02    59.82    0.00000E+00     0.00
   83.00     0.00     -28.32 -999.99  -28.32    0.00000     0.00  LINEAR    4.40422E-02    44.65    0.00000E+00     0.00
   84.00     0.00     -32.24 -999.99  -32.24    0.00000     0.00  LINEAR    2.80481E-02    14.33    0.00000E+00     0.00
   85.00     0.00     -33.20 -999.99  -33.20    0.00000     0.00  LINEAR    2.51063E-02   -30.15    0.00000E+00     0.00
   86.00     0.00     -31.62 -999.99  -31.62    0.00000     0.00  LINEAR    3.01037E-02   -57.94    0.00000E+00     0.00
   87.00     0.00     -31.03 -999.99  -31.03    0.00000     0.00  LINEAR    3.22368E-02   -70.52    0.00000E+00     0.00
   88.00     0.00     -32.35 -999.99  -32.35    0.00000     0.00  LINEAR    2.77030E-02   -76.60    0.00000E+00     0.00
   89.00     0.00     -36.91 -999.99  -36.91    0.00000     0.00  LINEAR    1.63752E-02   -79.53    0.00000E+00     0.00
    0.00     1.00     -10.16  -45.32  -10.16    0.00000    -1.00  LINEAR    3.56289E-01    74.75    6.21905E-03  -105.25
    1.00     1.00     -10.25  -45.41  -10.25    0.00000    -1.00  LINEAR    3.52513E-01    83.80    6.15309E-03   -96.21
    2.00     1.00     -10.55  -45.71  -10.55    0.00001    -1.00  LINEAR    3.40808E-01    92.12    5.94870E-03   -87.90
    3.00     1.00     -11.06  -46.22  -11.06    0.00002    -1.00  LEFT      3.21340E-01    99.75    5.60911E-03   -80.31
    4.00     1.00     -11.82  -46.98  -11.82    0.00003    -1.00  LEFT      2.94311E-01   106.75    5.13817E-03   -73.36
    5.00     1.00     -12.90  -48.06  -12.90    0.00006    -1.00  LEFT      2.59844E-01   113.20    4.53836E-03   -66.99
    6.00     1.00     -14.43  -49.58  -14.43    0.00008    -1.00  LEFT      2.17894E-01   119.19    3.80880E-03   -61.09
    7.00     1.00     -16.68  -51.82  -16.68    0.00012    -1.00  LEFT      1.68204E-01   124.86    2.94426E-03   -55.53
    8.00     1.00     -20.34  -55.46  -20.34    0.00016    -1.00  LEFT      1.10351E-01   130.32    1.93560E-03   -50.19
    9.00     1.00     -28.35  -63.44  -28.35    0.00020    -1.01  LEFT      4.38900E-02   135.73    7.72051E-04   -44.92
   10.00     1.00     -31.25  -66.31  -31.25    0.00024    -1.01  LEFT      3.14337E-02   -39.03    5.54991E-04   140.19
   11.00     1.00     -19.95  -54.97  -19.95    0.00028    -1.02  LEFT      1.15426E-01   -33.49    2.04725E-03   145.60
   12.00     1.00     -14.87  -49.84  -14.87    0.00032    -1.02  LEFT      2.07210E-01   -27.85    3.69496E-03   151.13
   13.00     1.00     -11.51  -46.43  -11.51    0.00035    -1.03  LEFT      3.05054E-01   -22.05    5.47311E-03   156.84
   14.00     1.00      -9.02  -43.88   -9.02    0.00037    -1.03  LEFT      4.06293E-01   -16.06    7.33929E-03   162.75
   15.00     1.00      -7.09  -41.89   -7.09    0.00039    -1.04  LEFT      5.07359E-01    -9.90    9.23338E-03   168.87
   16.00     1.00      -5.58  -40.31   -5.58    0.00040    -1.05  LEFT      6.03932E-01    -3.59    1.10793E-02   175.16
   17.00     1.00      -4.40  -39.06   -4.40    0.00040    -1.06  LEFT      6.91183E-01     2.86    1.27886E-02  -178.38
   18.00     1.00      -3.53  -38.11   -3.53    0.00039    -1.07  LEFT      7.64115E-01     9.41    1.42662E-02  -171.79
   19.00     1.00      -2.94  -37.44   -2.94    0.00037    -1.08  LEFT      8.17951E-01    16.04    1.54169E-02  -165.09
   20.00     1.00      -2.62  -37.03   -2.62    0.00034    -1.09  LEFT      8.48565E-01    22.71    1.61532E-02  -158.32
   21.00     1.00      -2.58  -36.90   -2.58    0.00030    -1.10  LEFT      8.52888E-01    29.38    1.64037E-02  -151.50
   22.00     1.00      -2.82  -37.05   -2.82    0.00024    -1.11  LEFT      8.29276E-01    36.04    1.61207E-02  -144.67
   23.00     1.00      -3.38  -37.51   -3.38    0.00016    -1.13  LEFT      7.77794E-01    42.63    1.52868E-02  -137.84
   24.00     1.00      -4.29  -38.32   -4.29    0.00007    -1.14  LEFT      7.00368E-01    49.13    1.39204E-02  -131.06
   25.00     1.00      -5.62  -39.56   -5.62    0.00006    -1.15  RIGHT     6.00795E-01    55.48    1.20778E-02  -124.36
   26.00     1.00      -7.49  -41.33   -7.49    0.00021    -1.16  RIGHT     4.84586E-01    61.63    9.85293E-03  -117.78
   27.00     1.00     -10.10  -43.84  -10.10    0.00040    -1.18  RIGHT     3.58640E-01    67.52    7.37360E-03  -111.37
   28.00     1.00     -13.93  -47.58  -13.93    0.00063    -1.19  RIGHT     2.30754E-01    73.05    4.79433E-03  -105.21
   29.00     1.00     -20.45  -54.02  -20.45    0.00093    -1.20  RIGHT     1.09009E-01    78.10    2.28589E-03   -99.37
   30.00     1.00     -60.83  -94.33  -60.82    0.00129    -1.21  RIGHT     1.04364E-03    85.41    2.20364E-05   -91.08
   31.00     1.00     -22.43  -55.92  -22.43    0.00174    -1.21  RIGHT     8.67404E-02   -94.22    1.83625E-03    90.51
   32.00     1.00     -17.67  -51.21  -17.67    0.00228    -1.20  RIGHT     1.50031E-01   -92.26    3.15852E-03    93.97
   33.00     1.00     -15.73  -49.45  -15.73    0.00286    -1.17  RIGHT     1.87624E-01   -92.52    3.86714E-03    95.47
   34.00     1.00     -15.06  -49.22  -15.05    0.00325    -1.11  RIGHT     2.02803E-01   -96.24    3.97197E-03    93.32
   35.00     1.00     -14.95  -49.95  -14.94    0.00277    -1.01  RIGHT     2.05378E-01  -105.05    3.64970E-03    83.94
   36.00     1.00     -14.63  -50.49  -14.63    0.00053    -0.92  RIGHT     2.12891E-01  -119.30    3.42995E-03    62.57
   37.00     1.00     -13.46  -48.84  -13.46    0.00258    -0.96  LEFT      2.43673E-01  -135.13    4.14805E-03    36.15
   38.00     1.00     -11.61  -45.71  -11.60    0.00433    -1.10  LEFT      3.01702E-01  -147.03    5.94777E-03    20.27
   39.00     1.00      -9.69  -42.80   -9.69    0.00460    -1.24  LEFT      3.76168E-01  -153.66    8.31746E-03    14.32
   40.00     1.00      -8.07  -40.52   -8.07    0.00419    -1.35  LEFT      4.53018E-01  -156.41    1.08142E-02    13.47
   41.00     1.00      -6.87  -38.84   -6.87    0.00353    -1.43  LEFT      5.20455E-01  -156.80    1.31177E-02    15.14
   42.00     1.00      -6.08  -37.69   -6.08    0.00277    -1.50  LEFT      5.69754E-01  -155.82    1.49791E-02    18.12
   43.00     1.00      -5.70  -37.00   -5.70    0.00194    -1.56  LEFT      5.95252E-01  -154.11    1.62093E-02    21.80
   44.00     1.00      -5.72  -36.75   -5.71    0.00101    -1.61  LEFT      5.94348E-01  -152.10    1.66854E-02    25.83
   45.00     1.00      -6.12  -36.92   -6.12    0.00005    -1.65  RIGHT     5.67417E-01  -150.12    1.63583E-02    29.98
   46.00     1.00      -6.92  -37.53   -6.91    0.00130    -1.69  RIGHT     5.17557E-01  -148.46    1.52559E-02    34.07
   47.00     1.00      -8.13  -38.60   -8.13    0.00279    -1.71  RIGHT     4.50127E-01  -147.45    1.34811E-02    37.91
   48.00     1.00      -9.78  -40.21   -9.78    0.00459    -1.70  RIGHT     3.72115E-01  -147.53    1.12023E-02    41.25
   49.00     1.00     -11.91  -42.47  -11.90    0.00667    -1.65  RIGHT     2.91384E-01  -149.37    8.63836E-03    43.65
   50.00     1.00     -14.51  -45.58  -14.51    0.00872    -1.52  RIGHT     2.15881E-01  -154.00    6.03995E-03    44.17
   51.00     1.00     -17.51  -49.89  -17.51    0.00946    -1.27  RIGHT     1.52796E-01  -162.91    3.67666E-03    40.26
   52.00     1.00     -20.60  -55.77  -20.60    0.00607    -0.94  RIGHT     1.07142E-01  -177.37    1.86809E-03    23.01
   53.00     1.00     -23.28  -60.01  -23.28    0.00248    -0.82  LEFT      7.86779E-02   164.27    1.14667E-03   -25.54
   54.00     1.00     -25.70  -58.90  -25.70    0.01020    -1.11  LEFT      5.95461E-02   147.39    1.30323E-03   -60.41
   55.00     1.00     -29.22  -59.71  -29.21    0.01295    -1.54  LEFT      3.97136E-02   135.40    1.18607E-03   -70.31
   56.00     1.00     -38.20  -67.15  -38.19    0.01225    -1.92  LEFT      1.41203E-02   127.81    5.03926E-04   -72.29
   57.00     1.00     -36.59  -64.56  -36.58    0.00993    -2.22  LEFT      1.69921E-02   -57.38    6.78974E-04   108.21
   58.00     1.00     -27.13  -54.40  -27.12    0.00674    -2.45  LEFT      5.05137E-02   -60.87    2.18728E-03   110.16
   59.00     1.00     -22.88  -49.62  -22.87    0.00282    -2.63  LEFT      8.23935E-02   -63.92    3.79103E-03   112.56
   60.00     1.00     -20.46  -46.81  -20.45    0.00190    -2.75  RIGHT     1.08890E-01   -67.17    5.23908E-03   115.10
   61.00     1.00     -19.09  -45.22  -19.08    0.00751    -2.79  RIGHT     1.27413E-01   -71.23    6.28967E-03   117.53
   62.00     1.00     -18.46  -44.62  -18.45    0.01381    -2.70  RIGHT     1.37091E-01   -76.77    6.73929E-03   119.59
   63.00     1.00     -18.33  -45.01  -18.32    0.01978    -2.40  RIGHT     1.39085E-01   -84.49    6.44870E-03   120.81
   64.00     1.00     -18.49  -46.60  -18.48    0.02258    -1.84  RIGHT     1.36576E-01   -95.03    5.36755E-03   120.08
   65.00     1.00     -18.65  -50.12  -18.65    0.01776    -1.14  RIGHT     1.34075E-01  -108.45    3.58030E-03   113.25
   66.00     1.00     -18.55  -56.49  -18.55    0.00352    -0.70  RIGHT     1.35555E-01  -123.58    1.72006E-03    72.53
   67.00     1.00     -18.15  -51.67  -18.15    0.01453    -0.87  LEFT      1.42053E-01  -138.40    2.99447E-03    -2.00
   68.00     1.00     -17.61  -45.52  -17.60    0.02854    -1.62  LEFT      1.51195E-01  -151.47    6.07899E-03   -16.73
   69.00     1.00     -17.16  -41.84  -17.14    0.03500    -2.67  LEFT      1.59222E-01  -162.70    9.28291E-03   -19.69
   70.00     1.00     -16.94  -39.50  -16.92    0.03367    -3.81  LEFT      1.63163E-01  -172.81    1.21639E-02   -19.78
   71.00     1.00     -17.02  -38.03  -16.98    0.02452    -4.89  LEFT      1.61838E-01   177.24    1.44066E-02   -18.87
   72.00     1.00     -17.33  -37.25  -17.29    0.00718    -5.75  LEFT      1.55998E-01   166.53    1.57596E-02   -17.58
   73.00     1.00     -17.79  -37.09  -17.74    0.01747    -6.11  RIGHT     1.47978E-01   154.41    1.60463E-02   -16.21
   74.00     1.00     -18.22  -37.57  -18.17    0.04385    -5.62  RIGHT     1.40805E-01   140.79    1.51798E-02   -14.96
   75.00     1.00     -18.48  -38.80  -18.44    0.06089    -4.27  RIGHT     1.36698E-01   126.47    1.31718E-02   -14.08
   76.00     1.00     -18.55  -41.08  -18.52    0.05963    -2.58  RIGHT     1.35639E-01   112.85    1.01352E-02   -14.05
   77.00     1.00     -18.57  -45.23  -18.56    0.04113    -1.24  RIGHT     1.35323E-01   101.00    6.28669E-03   -16.66
   78.00     1.00     -18.75  -54.81  -18.75    0.01203    -0.58  RIGHT     1.32591E-01    91.18    2.08548E-03   -38.91
   79.00     1.00     -19.26  -51.08  -19.26    0.02311    -0.64  LEFT      1.24946E-01    82.97    3.20612E-03  -161.29
   80.00     1.00     -20.27  -43.52  -20.25    0.06393    -1.45  LEFT      1.11305E-01    75.65    7.65567E-03  -172.80
   81.00     1.00     -21.91  -39.80  -21.84    0.11311    -3.36  LEFT      9.21504E-02    68.18    1.17439E-02  -174.77
   82.00     1.00     -24.37  -37.64  -24.17    0.17238    -7.51  LEFT      6.94315E-02    58.82    1.50670E-02  -175.05
   83.00     1.00     -27.83  -36.41  -27.26    0.21256   -17.04  LEFT      4.66105E-02    43.65    1.73473E-02  -174.82
   84.00     1.00     -31.75  -35.90  -30.33    0.06052   -31.67  LEFT      2.96878E-02    13.33    1.83924E-02  -174.41
   85.00     1.00     -32.71  -36.04  -31.05    0.30792   -31.86  RIGHT     2.65773E-02   -31.16    1.81033E-02  -173.97
   86.00     1.00     -31.13  -36.86  -30.10    0.44416   -15.22  RIGHT     3.18705E-02   -58.95    1.64810E-02  -173.56
   87.00     1.00     -30.53  -38.51  -29.89    0.38802    -5.44  RIGHT     3.41313E-02   -71.53    1.36271E-02  -173.21
   88.00     1.00     -31.85  -41.43  -31.40    0.33014    -1.98  RIGHT     2.93327E-02   -77.61    9.73630E-03  -172.94
   89.00     1.00     -36.42  -47.07  -36.06    0.29287    -0.72  RIGHT     1.73390E-02   -80.54    5.08261E-03  -172.77
    0.00     2.00     -10.16  -39.30  -10.16    0.00000    -2.00  LINEAR    3.56126E-01    74.75    1.24362E-02  -105.25
    1.00     2.00     -10.25  -39.39  -10.24    0.00000    -2.00  LINEAR    3.52698E-01    83.78    1.23164E-02   -96.22
    2.00     2.00     -10.53  -39.67  -10.53    0.00002    -2.00  LEFT      3.41331E-01    92.09    1.19193E-02   -87.93
    3.00     2.00     -11.03  -40.17  -11.03    0.00004    -2.00  LEFT      3.22171E-01    99.71    1.12506E-02   -80.35
    4.00     2.00     -11.79  -40.93  -11.78    0.00007    -2.00  LEFT      2.95394E-01   106.69    1.03173E-02   -73.42
    5.00     2.00     -12.86  -41.99  -12.86    0.00011    -2.00  LEFT      2.61102E-01   113.12    9.12344E-03   -67.06
    6.00     2.00     -14.38  -43.50  -14.37    0.00017    -2.00  LEFT      2.19226E-01   119.10    7.66649E-03   -61.17
    7.00     2.00     -16.61  -45.73  -16.61    0.00024    -2.01  LEFT      1.69482E-01   124.75    5.93509E-03   -55.63
    8.00     2.00     -20.26  -49.35  -20.25    0.00031    -2.01  LEFT      1.11422E-01   130.20    3.90994E-03   -50.31
    9.00     2.00     -28.22  -57.29  -28.21    0.00040    -2.02  LEFT      4.45657E-02   135.59    1.56835E-03   -45.05
   10.00     2.00     -31.27  -60.31  -31.26    0.00048    -2.02  LEFT      3.13700E-02   -39.18    1.10807E-03   140.04
   11.00     2.00     -19.89  -48.89  -19.89    0.00056    -2.03  LEFT      1.16221E-01   -33.65    4.12395E-03   145.44
   12.00     2.00     -14.79  -43.74  -14.78    0.00064    -2.04  LEFT      2.09131E-01   -28.03    7.46071E-03   150.95
   13.00     2.00     -11.42  -40.31  -11.41    0.00070    -2.06  LEFT      3.08378E-01   -22.23    1.10689E-02   156.65
   14.00     2.00      -8.91  -37.75   -8.91    0.00075    -2.07  LEFT      4.11284E-01   -16.26    1.48634E-02   162.55
   15.00     2.00      -6.97  -35.75   -6.97    0.00078    -2.08  LEFT      5.14247E-01   -10.12    1.87232E-02   168.65
   16.00     2.00      -5.45  -34.16   -5.44    0.00080    -2.10  LEFT      6.12883E-01    -3.82    2.24938E-02   174.93
   17.00     2.00      -4.27  -32.90   -4.26    0.00080    -2.12  LEFT      7.02276E-01     2.62    2.59957E-02  -178.62
   18.00     2.00      -3.38  -31.94   -3.38    0.00078    -2.14  LEFT      7.77312E-01     9.15    2.90341E-02  -172.05
   19.00     2.00      -2.78  -31.25   -2.78    0.00074    -2.16  LEFT      8.33084E-01    15.77    3.14138E-02  -165.37
   20.00     2.00      -2.45  -30.84   -2.45    0.00068    -2.18  LEFT      8.65320E-01    22.42    3.29544E-02  -158.61
   21.00     2.00      -2.40  -30.69   -2.39    0.00059    -2.20  LEFT      8.70812E-01    29.08    3.35071E-02  -151.80
   22.00     2.00      -2.63  -30.83   -2.62    0.00048    -2.23  LEFT      8.47790E-01    35.72    3.29712E-02  -144.98
   23.00     2.00      -3.18  -31.28   -3.17    0.00032    -2.25  LEFT      7.96223E-01    42.31    3.13075E-02  -138.17
   24.00     2.00      -4.07  -32.08   -4.07    0.00013    -2.28  LEFT      7.17983E-01    48.79    2.85497E-02  -131.40
   25.00     2.00      -5.39  -33.30   -5.39    0.00011    -2.30  RIGHT     6.16868E-01    55.13    2.48094E-02  -124.71
   26.00     2.00      -7.24  -35.06   -7.24    0.00041    -2.33  RIGHT     4.98450E-01    61.27    2.02758E-02  -118.15
   27.00     2.00      -9.84  -37.55   -9.83    0.00079    -2.35  RIGHT     3.69748E-01    67.14    1.52086E-02  -111.75
   28.00     2.00     -13.64  -41.26  -13.63    0.00126    -2.38  RIGHT     2.38740E-01    72.66    9.92355E-03  -105.60
   29.00     2.00     -20.08  -47.62  -20.07    0.00185    -2.40  RIGHT     1.13727E-01    77.70    4.77112E-03   -99.77
   30.00     2.00     -52.91  -80.40  -52.91    0.00258    -2.41  RIGHT     2.59514E-03    83.54    1.09626E-04   -92.95
   31.00     2.00     -22.31  -49.77  -22.30    0.00348    -2.42  RIGHT     8.80086E-02   -94.66    3.72734E-03    90.06
   32.00     2.00     -17.47  -44.98  -17.46    0.00456    -2.40  RIGHT     1.53563E-01   -92.71    6.46771E-03    93.52
   33.00     2.00     -15.50  -43.19  -15.49    0.00572    -2.34  RIGHT     1.92731E-01   -92.98    7.94725E-03    95.01
   34.00     2.00     -14.80  -42.94  -14.80    0.00650    -2.21  RIGHT     2.08807E-01   -96.72    8.18160E-03    92.84
   35.00     2.00     -14.68  -43.66  -14.67    0.00554    -2.01  RIGHT     2.11841E-01  -105.53    7.53140E-03    83.45
   36.00     2.00     -14.35  -44.19  -14.35    0.00105    -1.85  RIGHT     2.19932E-01  -119.80    7.08897E-03    62.07
   37.00     2.00     -13.17  -42.52  -13.16    0.00516    -1.93  LEFT      2.52089E-01  -135.64    8.58528E-03    35.63
   38.00     2.00     -11.30  -39.38  -11.29    0.00866    -2.20  LEFT      3.12538E-01  -147.56    1.23265E-02    19.75
   39.00     2.00      -9.37  -36.46   -9.36    0.00920    -2.48  LEFT      3.90176E-01  -154.20    1.72596E-02    13.78
   40.00     2.00      -7.75  -34.17   -7.74    0.00837    -2.69  LEFT      4.70469E-01  -156.97    2.24683E-02    12.91
   41.00     2.00      -6.53  -32.48   -6.52    0.00706    -2.86  LEFT      5.41162E-01  -157.36    2.72876E-02    14.57
   42.00     2.00      -5.73  -31.31   -5.72    0.00554    -2.99  LEFT      5.93137E-01  -156.40    3.11971E-02    17.54
   43.00     2.00      -5.34  -30.62   -5.33    0.00387    -3.11  LEFT      6.20429E-01  -154.70    3.38000E-02    21.21
   44.00     2.00      -5.35  -30.36   -5.33    0.00202    -3.21  LEFT      6.20238E-01  -152.71    3.48351E-02    25.22
   45.00     2.00      -5.74  -30.52   -5.72    0.00010    -3.30  RIGHT     5.92864E-01  -150.73    3.41942E-02    29.36
   46.00     2.00      -6.53  -31.11   -6.51    0.00259    -3.37  RIGHT     5.41452E-01  -149.08    3.19302E-02    33.44
   47.00     2.00      -7.73  -32.18   -7.71    0.00557    -3.41  RIGHT     4.71528E-01  -148.09    2.82526E-02    37.27
   48.00     2.00      -9.37  -33.77   -9.35    0.00916    -3.41  RIGHT     3.90349E-01  -148.18    2.35096E-02    40.60
   49.00     2.00     -11.48  -36.02  -11.46    0.01332    -3.31  RIGHT     3.06121E-01  -150.03    1.81560E-02    42.98
   50.00     2.00     -14.07  -39.11  -14.06    0.01740    -3.05  RIGHT     2.27179E-01  -154.67    1.27160E-02    43.49
   51.00     2.00     -17.05  -43.40  -17.04    0.01890    -2.54  RIGHT     1.61106E-01  -163.60    7.75559E-03    39.57
   52.00     2.00     -20.12  -49.26  -20.11    0.01213    -1.87  RIGHT     1.13242E-01  -178.06    3.95011E-03    22.32
   53.00     2.00     -22.77  -53.48  -22.77    0.00497    -1.65  LEFT      8.34330E-02   163.57    2.43268E-03   -26.25
   54.00     2.00     -25.14  -52.32  -25.14    0.02039    -2.22  LEFT      6.34793E-02   146.68    2.77948E-03   -61.12
   55.00     2.00     -28.56  -53.04  -28.55    0.02584    -3.08  LEFT      4.28165E-02   134.68    2.55826E-03   -71.02
   56.00     2.00     -37.08  -60.00  -37.06    0.02442    -3.84  LEFT      1.60680E-02   127.13    1.14721E-03   -72.97
   57.00     2.00     -36.81  -58.76  -36.79    0.01978    -4.43  LEFT      1.65616E-02   -58.23    1.32395E-03   107.35
   58.00     2.00     -26.91  -48.15  -26.87    0.01341    -4.89  LEFT      5.18274E-02   -61.67    4.48969E-03   109.36
   59.00     2.00     -22.56  -43.28  -22.52    0.00561    -5.25  LEFT      8.54705E-02   -64.72    7.86761E-03   111.76
   60.00     2.00     -20.09  -40.43  -20.05    0.00377    -5.49  RIGHT     1.13536E-01   -67.97    1.09286E-02   114.29
   61.00     2.00     -18.70  -38.81  -18.66    0.01491    -5.58  RIGHT     1.33269E-01   -72.05    1.31616E-02   116.72
   62.00     2.00     -18.05  -38.19  -18.00    0.02745    -5.39  RIGHT     1.43714E-01   -77.59    1.41340E-02   118.77
   63.00     2.00     -17.91  -38.56  -17.87    0.03936    -4.80  RIGHT     1.46058E-01   -85.32    1.35482E-02   119.98
   64.00     2.00     -18.05  -40.14  -18.03    0.04503    -3.69  RIGHT     1.43630E-01   -95.87    1.12930E-02   119.24
   65.00     2.00     -18.20  -43.65  -18.19    0.03548    -2.29  RIGHT     1.41172E-01  -109.29    7.54196E-03   112.41
   66.00     2.00     -18.10  -50.01  -18.09    0.00704    -1.40  RIGHT     1.42885E-01  -124.44    3.62727E-03    71.68
   67.00     2.00     -17.68  -45.18  -17.67    0.02906    -1.75  LEFT      1.49881E-01  -139.26    6.32087E-03    -2.86
   68.00     2.00     -17.13  -39.02  -17.10    0.05695    -3.25  LEFT      1.59667E-01  -152.34    1.28432E-02   -17.60
   69.00     2.00     -16.68  -35.34  -16.62    0.06957    -5.35  LEFT      1.68280E-01  -163.58    1.96281E-02   -20.57
   70.00     2.00     -16.46  -32.98  -16.36    0.06647    -7.61  LEFT      1.72575E-01  -173.69    2.57391E-02   -20.67
   71.00     2.00     -16.52  -31.51  -16.39    0.04801    -9.73  LEFT      1.71293E-01   176.35    3.05059E-02   -19.77
   72.00     2.00     -16.84  -30.72  -16.66    0.01394   -11.40  LEFT      1.65220E-01   165.63    3.33925E-02   -18.48
   73.00     2.00     -17.29  -30.56  -17.09    0.03379   -12.10  RIGHT     1.56821E-01   153.50    3.40206E-02   -17.12
   74.00     2.00     -17.72  -31.04  -17.52    0.08524   -11.21  RIGHT     1.49303E-01   139.88    3.22017E-02   -15.88
   75.00     2.00     -17.97  -32.27  -17.81    0.11979    -8.59  RIGHT     1.45025E-01   125.55    2.79568E-02   -15.00
   76.00     2.00     -18.03  -34.54  -17.94    0.11857    -5.20  RIGHT     1.43973E-01   111.92    2.15222E-02   -14.98
   77.00     2.00     -18.05  -38.68  -18.01    0.08217    -2.49  RIGHT     1.43702E-01   100.07    1.33560E-02   -17.59
   78.00     2.00     -18.22  -48.26  -18.22    0.02406    -1.16  RIGHT     1.40861E-01    90.24    4.43244E-03   -39.85
   79.00     2.00     -18.73  -44.53  -18.72    0.04622    -1.28  LEFT      1.32790E-01    82.03    6.81687E-03  -162.23
   80.00     2.00     -19.73  -36.96  -19.65    0.12765    -2.94  LEFT      1.18334E-01    74.71    1.62833E-02  -173.74
   81.00     2.00     -21.37  -33.24  -21.10    0.22389    -6.97  LEFT      9.80016E-02    67.23    2.49869E-02  -175.72
   82.00     2.00     -23.83  -31.08  -23.08    0.32652   -16.12  LEFT      7.38613E-02    57.87    3.20663E-02  -176.01
   83.00     2.00     -27.29  -29.85  -25.37    0.33057   -34.54  LEFT      4.95969E-02    42.70    3.69288E-02  -175.78
   84.00     2.00     -31.20  -29.34  -27.16    0.06611   -51.16  LEFT      3.15969E-02    12.37    3.91622E-02  -175.37
   85.00     2.00     -32.16  -29.48  -27.60    0.31736   -55.77  RIGHT     2.82916E-02   -32.12    3.85537E-02  -174.93
   86.00     2.00     -30.58  -30.29  -27.42    0.64108   -47.33  RIGHT     3.39314E-02   -59.92    3.51043E-02  -174.52
   87.00     2.00     -29.99  -31.94  -27.85    0.73683   -20.88  RIGHT     3.63428E-02   -72.50    2.90290E-02  -174.17
   88.00     2.00     -31.30  -34.86  -29.72    0.65677    -6.22  RIGHT     3.12359E-02   -78.58    2.07424E-02  -173.91
   89.00     2.00     -35.87  -40.51  -34.59    0.58553    -1.99  RIGHT     1.84650E-02   -81.50    1.08286E-02  -173.74
    0.00     3.00     -10.17  -35.78  -10.16    0.00000    -3.00  LINEAR    3.55855E-01    74.75    1.86496E-02  -105.25
    1.00     3.00     -10.25  -35.86  -10.23    0.00001    -3.00  LINEAR    3.52778E-01    83.76    1.84881E-02   -96.24
    2.00     3.00     -10.52  -36.13  -10.51    0.00002    -3.00  LEFT      3.41765E-01    92.06    1.79108E-02   -87.97
    3.00     3.00     -11.01  -36.63  -11.00    0.00005    -3.00  LEFT      3.22935E-01    99.66    1.69246E-02   -80.40
    4.00     3.00     -11.76  -37.37  -11.75    0.00010    -3.00  LEFT      2.96443E-01   106.62    1.55389E-02   -73.49
    5.00     3.00     -12.82  -38.43  -12.81    0.00017    -3.00  LEFT      2.62366E-01   113.03    1.37584E-02   -67.15
    6.00     3.00     -14.32  -39.92  -14.31    0.00025    -3.00  LEFT      2.20610E-01   119.00    1.15782E-02   -61.28
    7.00     3.00     -16.54  -42.13  -16.53    0.00035    -3.01  LEFT      1.70863E-01   124.63    8.97973E-03   -55.76
    8.00     3.00     -20.16  -45.73  -20.15    0.00047    -3.01  LEFT      1.12647E-01   130.07    5.93239E-03   -50.45
    9.00     3.00     -28.05  -53.59  -28.03    0.00060    -3.02  LEFT      4.54476E-02   135.44    2.40030E-03   -45.21
   10.00     3.00     -31.35  -56.87  -31.34    0.00072    -3.03  LEFT      3.10535E-02   -39.35    1.64617E-03   139.87
   11.00     3.00     -19.85  -45.33  -19.84    0.00084    -3.05  LEFT      1.16726E-01   -33.83    6.21598E-03   145.26
   12.00     3.00     -14.72  -40.15  -14.71    0.00095    -3.06  LEFT      2.10742E-01   -28.23    1.12830E-02   150.75
   13.00     3.00     -11.33  -36.70  -11.32    0.00105    -3.08  LEFT      3.11391E-01   -22.45    1.67740E-02   156.43
   14.00     3.00      -8.82  -34.13   -8.80    0.00112    -3.10  LEFT      4.15992E-01   -16.50    2.25619E-02   162.32
   15.00     3.00      -6.86  -32.11   -6.85    0.00117    -3.13  LEFT      5.20914E-01   -10.37    2.84633E-02   168.40
   16.00     3.00      -5.32  -30.50   -5.31    0.00120    -3.15  LEFT      6.21714E-01    -4.08    3.42443E-02   174.67
   17.00     3.00      -4.13  -29.24   -4.12    0.00120    -3.18  LEFT      7.13388E-01     2.34    3.96306E-02  -178.90
   18.00     3.00      -3.24  -28.26   -3.22    0.00117    -3.21  LEFT      7.90707E-01     8.86    4.43242E-02  -172.34
   19.00     3.00      -2.62  -27.57   -2.61    0.00111    -3.24  LEFT      8.48625E-01    15.46    4.80241E-02  -165.67
   20.00     3.00      -2.28  -27.14   -2.27    0.00102    -3.27  LEFT      8.82718E-01    22.10    5.04510E-02  -158.93
   21.00     3.00      -2.21  -26.98   -2.20    0.00089    -3.30  LEFT      8.89623E-01    28.75    5.13725E-02  -152.14
   22.00     3.00      -2.43  -27.11   -2.42    0.00071    -3.34  LEFT      8.67432E-01    35.38    5.06283E-02  -145.33
   23.00     3.00      -2.96  -27.54   -2.95    0.00049    -3.38  LEFT      8.15997E-01    41.94    4.81520E-02  -138.53
   24.00     3.00      -3.85  -28.33   -3.83    0.00020    -3.42  LEFT      7.37120E-01    48.41    4.39884E-02  -131.78
   25.00     3.00      -5.15  -29.53   -5.13    0.00017    -3.45  RIGHT     6.34583E-01    54.74    3.83023E-02  -125.10
   26.00     3.00      -6.98  -31.26   -6.96    0.00062    -3.49  RIGHT     5.14006E-01    60.87    3.13788E-02  -118.55
   27.00     3.00      -9.54  -33.73   -9.53    0.00119    -3.53  RIGHT     3.82522E-01    66.73    2.36131E-02  -112.16
   28.00     3.00     -13.30  -37.40  -13.28    0.00189    -3.57  RIGHT     2.48286E-01    72.24    1.54884E-02  -106.02
   29.00     3.00     -19.63  -43.64  -19.61    0.00277    -3.60  RIGHT     1.19828E-01    77.27    7.54443E-03  -100.20
   30.00     3.00     -46.72  -70.68  -46.70    0.00386    -3.62  RIGHT     5.29595E-03    82.46    3.35745E-04   -94.03
   31.00     3.00     -22.27  -46.20  -22.25    0.00522    -3.62  RIGHT     8.83959E-02   -95.13    5.61846E-03    89.59
   32.00     3.00     -17.31  -41.29  -17.29    0.00683    -3.60  RIGHT     1.56491E-01   -93.19    9.89159E-03    93.04
   33.00     3.00     -15.29  -39.45  -15.27    0.00857    -3.51  RIGHT     1.97494E-01   -93.47    1.22217E-02    94.52
   34.00     3.00     -14.56  -39.17  -14.55    0.00973    -3.32  RIGHT     2.14685E-01   -97.22    1.26243E-02    92.34
   35.00     3.00     -14.41  -39.87  -14.40    0.00831    -3.02  RIGHT     2.18349E-01  -106.05    1.16501E-02    82.94
   36.00     3.00     -14.07  -40.38  -14.06    0.00157    -2.77  RIGHT     2.27160E-01  -120.32    1.09885E-02    61.55
   37.00     3.00     -12.87  -38.70  -12.86    0.00773    -2.89  LEFT      2.60853E-01  -136.17    1.33324E-02    35.10
   38.00     3.00     -10.99  -35.54  -10.97    0.01297    -3.31  LEFT      3.23954E-01  -148.10    1.91749E-02    19.20
   39.00     3.00      -9.05  -32.60   -9.03    0.01377    -3.72  LEFT      4.05080E-01  -154.75    2.68921E-02    13.22
   40.00     3.00      -7.41  -30.30   -7.38    0.01253    -4.04  LEFT      4.89204E-01  -157.53    3.50624E-02    12.35
   41.00     3.00      -6.18  -28.60   -6.15    0.01056    -4.29  LEFT      5.63574E-01  -157.94    4.26482E-02    14.00
   42.00     3.00      -5.37  -27.42   -5.34    0.00829    -4.49  LEFT      6.18641E-01  -156.98    4.88327E-02    16.96
   43.00     3.00      -4.96  -26.71   -4.94    0.00579    -4.66  LEFT      6.48093E-01  -155.30    5.29876E-02    20.61
   44.00     3.00      -4.95  -26.44   -4.92    0.00302    -4.81  LEFT      6.48897E-01  -153.31    5.46948E-02    24.62
   45.00     3.00      -5.33  -26.59   -5.30    0.00014    -4.95  RIGHT     6.21241E-01  -151.34    5.37737E-02    28.75
   46.00     3.00      -6.11  -27.17   -6.07    0.00387    -5.05  RIGHT     5.68302E-01  -149.70    5.02959E-02    32.82
   47.00     3.00      -7.29  -28.21   -7.26    0.00832    -5.12  RIGHT     4.95771E-01  -148.71    4.45805E-02    36.64
   48.00     3.00      -8.92  -29.79   -8.88    0.01369    -5.11  RIGHT     4.11185E-01  -148.82    3.71656E-02    39.96
   49.00     3.00     -11.01  -32.02  -10.98    0.01990    -4.96  RIGHT     3.23126E-01  -150.68    2.87615E-02    42.34
   50.00     3.00     -13.58  -35.09  -13.55    0.02602    -4.57  RIGHT     2.40364E-01  -155.33    2.01911E-02    42.84
   51.00     3.00     -16.54  -39.36  -16.52    0.02830    -3.80  RIGHT     1.70935E-01  -164.26    1.23494E-02    38.91
   52.00     3.00     -19.57  -45.19  -19.56    0.01819    -2.81  RIGHT     1.20583E-01  -178.73    6.31246E-03    21.65
   53.00     3.00     -22.18  -49.36  -22.17    0.00744    -2.47  LEFT      8.92896E-02   162.89    3.90714E-03   -26.92
   54.00     3.00     -24.48  -48.13  -24.46    0.03054    -3.33  LEFT      6.84952E-02   146.00    4.50094E-03   -61.80
   55.00     3.00     -27.75  -48.70  -27.72    0.03865    -4.63  LEFT      4.70198E-02   134.01    4.21625E-03   -71.70
   56.00     3.00     -35.58  -54.98  -35.53    0.03645    -5.75  LEFT      1.90975E-02   126.47    2.04632E-03   -73.63
   57.00     3.00     -37.60  -56.01  -37.53    0.02947    -6.63  LEFT      1.51368E-02   -59.06    1.81600E-03   106.53
   58.00     3.00     -26.83  -44.55  -26.75    0.01995    -7.32  LEFT      5.23049E-02   -62.42    6.80005E-03   108.61
   59.00     3.00     -22.31  -39.51  -22.23    0.00833    -7.85  LEFT      8.79225E-02   -65.46    1.21461E-02   111.02
   60.00     3.00     -19.77  -36.58  -19.68    0.00560    -8.21  RIGHT     1.17795E-01   -68.72    1.70165E-02   113.55
   61.00     3.00     -18.34  -34.92  -18.24    0.02212    -8.34  RIGHT     1.38970E-01   -72.79    2.05974E-02   115.97
   62.00     3.00     -17.65  -34.27  -17.56    0.04075    -8.07  RIGHT     1.50386E-01   -78.34    2.21967E-02   118.02
   63.00     3.00     -17.49  -34.62  -17.41    0.05856    -7.20  RIGHT     1.53244E-01   -86.07    2.13329E-02   119.22
   64.00     3.00     -17.62  -36.18  -17.56    0.06723    -5.54  RIGHT     1.51017E-01   -96.63    1.78197E-02   118.48
   65.00     3.00     -17.75  -39.67  -17.72    0.05314    -3.44  RIGHT     1.48698E-01  -110.06    1.19221E-02   111.64
   66.00     3.00     -17.63  -46.01  -17.63    0.01056    -2.10  RIGHT     1.50735E-01  -125.21    5.74272E-03    70.91
   67.00     3.00     -17.21  -41.18  -17.19    0.04356    -2.63  LEFT      1.58331E-01  -140.04    1.00209E-02    -3.64
   68.00     3.00     -16.65  -35.01  -16.58    0.08513    -4.89  LEFT      1.68876E-01  -153.12    2.03862E-02   -18.38
   69.00     3.00     -16.18  -31.32  -16.05    0.10328    -8.05  LEFT      1.78185E-01  -164.36    3.11908E-02   -21.35
   70.00     3.00     -15.95  -28.95  -15.74    0.09761   -11.39  LEFT      1.82920E-01  -174.48    4.09436E-02   -21.46
   71.00     3.00     -16.01  -27.47  -15.71    0.06956   -14.47  LEFT      1.81732E-01   175.55    4.85723E-02   -20.56
   72.00     3.00     -16.31  -26.68  -15.93    0.01994   -16.84  LEFT      1.75442E-01   164.83    5.32149E-02   -19.28
   73.00     3.00     -16.76  -26.51  -16.32    0.04807   -17.85  RIGHT     1.66659E-01   152.70    5.42601E-02   -17.92
   74.00     3.00     -17.18  -26.98  -16.75    0.12211   -16.70  RIGHT     1.58790E-01   139.07    5.13980E-02   -16.68
   75.00     3.00     -17.43  -28.20  -17.08    0.17481   -13.00  RIGHT     1.54349E-01   124.74    4.46540E-02   -15.81
   76.00     3.00     -17.48  -30.47  -17.27    0.17611    -7.92  RIGHT     1.53329E-01   111.11    3.43989E-02   -15.79
   77.00     3.00     -17.50  -34.60  -17.41    0.12302    -3.76  RIGHT     1.53134E-01    99.25    2.13598E-02   -18.40
   78.00     3.00     -17.66  -44.18  -17.65    0.03610    -1.74  RIGHT     1.50190E-01    89.42    7.09261E-03   -40.67
   79.00     3.00     -18.17  -40.44  -18.15    0.06932    -1.93  LEFT      1.41657E-01    81.21    1.09137E-02  -163.06
   80.00     3.00     -19.17  -32.87  -18.99    0.19093    -4.50  LEFT      1.26296E-01    73.88    2.60815E-02  -174.57
   81.00     3.00     -20.80  -29.15  -20.21    0.32953   -11.09  LEFT      1.04639E-01    66.40    4.00393E-02  -176.54
   82.00     3.00     -23.26  -26.98  -21.72    0.44144   -26.58  LEFT      7.88941E-02    57.04    5.14029E-02  -176.83
   83.00     3.00     -26.71  -25.75  -23.19    0.34621   -49.04  LEFT      5.29941E-02    41.87    5.92175E-02  -176.61
   84.00     3.00     -30.63  -25.24  -24.13    0.05635   -61.86  LEFT      3.37711E-02    11.54    6.28173E-02  -176.20
   85.00     3.00     -31.58  -25.37  -24.44    0.25392   -67.16  RIGHT     3.02458E-02   -32.95    6.18566E-02  -175.76
   86.00     3.00     -30.00  -26.18  -24.67    0.53030   -68.75  RIGHT     3.62825E-02   -60.75    5.63336E-02  -175.35
   87.00     3.00     -29.41  -27.83  -25.54    0.75989   -66.01  RIGHT     3.88671E-02   -73.33    4.65917E-02  -175.00
   88.00     3.00     -30.72  -30.75  -27.72    0.91101   -43.95  RIGHT     3.34092E-02   -79.41    3.32953E-02  -174.74
   89.00     3.00     -35.28  -36.39  -32.79    0.87496    -8.47  RIGHT     1.97511E-02   -82.34    1.73831E-02  -174.57
    0.00     4.00     -10.18  -33.29  -10.16    0.00000    -4.00  LINEAR    3.55475E-01    74.75    2.48572E-02  -105.25
    1.00     4.00     -10.25  -33.35  -10.23    0.00001    -4.00  LINEAR    3.52754E-01    83.74    2.46667E-02   -96.26
    2.00     4.00     -10.51  -33.62  -10.49    0.00003    -4.00  LEFT      3.42107E-01    92.02    2.39220E-02   -88.01
    3.00     4.00     -11.00  -34.10  -10.97    0.00007    -4.00  LEFT      3.23633E-01    99.60    2.26310E-02   -80.46
    4.00     4.00     -11.73  -34.83  -11.71    0.00014    -4.00  LEFT      2.97458E-01   106.54    2.08042E-02   -73.57
    5.00     4.00     -12.78  -35.88  -12.76    0.00022    -4.00  LEFT      2.63636E-01   112.93    1.84465E-02   -67.25
    6.00     4.00     -14.27  -37.36  -14.25    0.00034    -4.01  LEFT      2.22045E-01   118.88    1.55492E-02   -61.40
    7.00     4.00     -16.47  -39.55  -16.45    0.00047    -4.01  LEFT      1.72348E-01   124.49    1.20856E-02   -55.89
    8.00     4.00     -20.06  -43.12  -20.04    0.00063    -4.02  LEFT      1.14028E-01   129.91    8.01260E-03   -50.61
    9.00     4.00     -27.84  -50.88  -27.82    0.00079    -4.03  LEFT      4.65399E-02   135.26    3.27966E-03   -45.39
   10.00     4.00     -31.52  -54.52  -31.50    0.00096    -4.05  LEFT      3.04775E-02   -39.54    2.15572E-03   139.67
   11.00     4.00     -19.84  -42.81  -19.82    0.00112    -4.06  LEFT      1.16931E-01   -34.04    8.30849E-03   145.04
   12.00     4.00     -14.67  -37.59  -14.65    0.00127    -4.09  LEFT      2.12027E-01   -28.46    1.51465E-02   150.52
   13.00     4.00     -11.26  -34.12  -11.23    0.00139    -4.11  LEFT      3.14076E-01   -22.70    2.25743E-02   156.19
   14.00     4.00      -8.72  -31.53   -8.70    0.00149    -4.14  LEFT      4.20397E-01   -16.76    3.04226E-02   162.06
   15.00     4.00      -6.75  -29.50   -6.73    0.00156    -4.17  LEFT      5.27336E-01   -10.64    3.84463E-02   168.13
   16.00     4.00      -5.20  -27.88   -5.18    0.00159    -4.20  LEFT      6.30398E-01    -4.37    4.63298E-02   174.38
   17.00     4.00      -4.00  -26.60   -3.97    0.00160    -4.24  LEFT      7.24491E-01     2.03    5.37015E-02  -179.21
   18.00     4.00      -3.09  -25.61   -3.06    0.00156    -4.28  LEFT      8.04271E-01     8.54    6.01555E-02  -172.66
   19.00     4.00      -2.46  -24.90   -2.44    0.00148    -4.32  LEFT      8.64548E-01    15.12    6.52801E-02  -166.01
   20.00     4.00      -2.10  -24.46   -2.08    0.00136    -4.36  LEFT      9.00738E-01    21.75    6.86901E-02  -159.28
   21.00     4.00      -2.02  -24.29   -2.00    0.00118    -4.41  LEFT      9.09311E-01    28.38    7.00624E-02  -152.50
   22.00     4.00      -2.23  -24.40   -2.20    0.00095    -4.45  LEFT      8.88201E-01    35.00    6.91699E-02  -145.71
   23.00     4.00      -2.74  -24.82   -2.71    0.00065    -4.50  LEFT      8.37130E-01    41.55    6.59124E-02  -138.92
   24.00     4.00      -3.61  -25.58   -3.58    0.00026    -4.55  LEFT      7.57809E-01    48.01    6.03403E-02  -132.18
   25.00     4.00      -4.89  -26.77   -4.86    0.00022    -4.60  RIGHT     6.53987E-01    54.32    5.26688E-02  -125.52
   26.00     4.00      -6.69  -28.47   -6.66    0.00083    -4.66  RIGHT     5.31317E-01    60.44    4.32783E-02  -118.98
   27.00     4.00      -9.22  -30.91   -9.19    0.00158    -4.71  RIGHT     3.97039E-01    66.29    3.27022E-02  -112.60
   28.00     4.00     -12.91  -34.51  -12.88    0.00252    -4.76  RIGHT     2.59482E-01    71.78    2.15978E-02  -106.47
   29.00     4.00     -19.09  -40.61  -19.06    0.00368    -4.80  RIGHT     1.27413E-01    76.81    1.07036E-02  -100.66
   30.00     4.00     -41.87  -63.33  -41.84    0.00514    -4.83  RIGHT     9.25273E-03    81.68    7.82680E-04   -94.81
   31.00     4.00     -22.33  -43.76  -22.30    0.00694    -4.83  RIGHT     8.77954E-02   -95.63    7.44570E-03    89.10
   32.00     4.00     -17.18  -38.66  -17.15    0.00909    -4.79  RIGHT     1.58713E-01   -93.68    1.33856E-02    92.55
   33.00     4.00     -15.10  -36.76  -15.07    0.01140    -4.68  RIGHT     2.01821E-01   -93.98    1.66644E-02    94.01
   34.00     4.00     -14.33  -36.44  -14.31    0.01295    -4.42  RIGHT     2.20358E-01   -97.73    1.72895E-02    91.83
   35.00     4.00     -14.16  -37.11  -14.14    0.01106    -4.02  RIGHT     2.24833E-01  -106.57    1.60061E-02    82.42
   36.00     4.00     -13.79  -37.60  -13.78    0.00210    -3.69  RIGHT     2.34510E-01  -120.85    1.51362E-02    61.02
   37.00     4.00     -12.57  -35.90  -12.55    0.01030    -3.86  LEFT      2.69901E-01  -136.71    1.84062E-02    34.56
   38.00     4.00     -10.67  -32.72  -10.65    0.01726    -4.41  LEFT      3.35880E-01  -148.64    2.65266E-02    18.66
   39.00     4.00      -8.72  -29.77   -8.68    0.01832    -4.95  LEFT      4.20806E-01  -155.30    3.72746E-02    12.67
   40.00     4.00      -7.06  -27.45   -7.02    0.01666    -5.38  LEFT      5.09141E-01  -158.09    4.86899E-02    11.79
   41.00     4.00      -5.81  -25.73   -5.77    0.01403    -5.71  LEFT      5.87613E-01  -158.50    5.93320E-02    13.43
   42.00     4.00      -4.99  -24.54   -4.94    0.01100    -5.98  LEFT      6.46196E-01  -157.55    6.80587E-02    16.39
   43.00     4.00      -4.57  -23.81   -4.52    0.00769    -6.21  LEFT      6.78192E-01  -155.87    7.39839E-02    20.04
   44.00     4.00      -4.54  -23.52   -4.49    0.00401    -6.41  LEFT      6.80290E-01  -153.89    7.65091E-02    24.04
   45.00     4.00      -4.90  -23.65   -4.85    0.00019    -6.59  RIGHT     6.52540E-01  -151.93    7.53642E-02    28.17
   46.00     4.00      -5.66  -24.22   -5.60    0.00513    -6.73  RIGHT     5.98126E-01  -150.29    7.06308E-02    32.23
   47.00     4.00      -6.83  -25.25   -6.77    0.01104    -6.81  RIGHT     5.22897E-01  -149.31    6.27375E-02    36.05
   48.00     4.00      -8.43  -26.81   -8.37    0.01815    -6.80  RIGHT     4.34685E-01  -149.42    5.24235E-02    39.36
   49.00     4.00     -10.50  -29.01  -10.44    0.02640    -6.61  RIGHT     3.42473E-01  -151.28    4.06737E-02    41.74
   50.00     4.00     -13.05  -32.06  -12.99    0.03455    -6.09  RIGHT     2.55514E-01  -155.93    2.86388E-02    42.23
   51.00     4.00     -15.98  -36.30  -15.94    0.03763    -5.07  RIGHT     1.82365E-01  -164.87    1.75795E-02    38.30
   52.00     4.00     -18.97  -42.09  -18.95    0.02422    -3.75  RIGHT     1.29246E-01  -179.34    9.02773E-03    21.04
   53.00     4.00     -21.52  -46.19  -21.51    0.00992    -3.29  LEFT      9.63375E-02   162.28    5.62474E-03   -27.53
   54.00     4.00     -23.73  -44.87  -23.70    0.04064    -4.44  LEFT      7.47019E-02   145.38    6.54972E-03   -62.41
   55.00     4.00     -26.80  -45.24  -26.74    0.05130    -6.17  LEFT      5.24589E-02   133.39    6.27642E-03   -72.32
   56.00     4.00     -33.82  -50.72  -33.73    0.04826    -7.66  LEFT      2.33751E-02   125.85    3.34193E-03   -74.25
   57.00     4.00     -39.24  -55.16  -39.13    0.03892    -8.83  LEFT      1.25231E-02   -59.85    2.00465E-03   105.73
   58.00     4.00     -26.92  -42.14  -26.79    0.02628    -9.73  LEFT      5.17288E-02   -63.07    8.97326E-03   107.95
   59.00     4.00     -22.16  -36.85  -22.01    0.01096   -10.43  LEFT      8.95180E-02   -66.10    1.65005E-02   110.37
   60.00     4.00     -19.51  -33.81  -19.35    0.00735   -10.90  RIGHT     1.21430E-01   -69.36    2.34055E-02   112.91
   61.00     4.00     -18.01  -32.09  -17.85    0.02903   -11.07  RIGHT     1.44287E-01   -73.44    2.85342E-02   115.33
   62.00     4.00     -17.28  -31.40  -17.12    0.05355   -10.73  RIGHT     1.56894E-01   -78.98    3.08984E-02   117.37
   63.00     4.00     -17.09  -31.71  -16.94    0.07718    -9.59  RIGHT     1.60448E-01   -86.72    2.98022E-02   118.58
   64.00     4.00     -17.19  -33.25  -17.09    0.08906    -7.40  RIGHT     1.58563E-01   -97.27    2.49646E-02   117.84
   65.00     4.00     -17.31  -36.72  -17.26    0.07071    -4.59  RIGHT     1.56493E-01  -110.70    1.67413E-02   110.99
   66.00     4.00     -17.17  -43.05  -17.16    0.01408    -2.80  RIGHT     1.58953E-01  -125.85    8.08017E-03    70.26
   67.00     4.00     -16.73  -38.20  -16.70    0.05802    -3.51  LEFT      1.67254E-01  -140.69    1.41243E-02    -4.29
   68.00     4.00     -16.16  -32.02  -16.04    0.11294    -6.55  LEFT      1.78671E-01  -153.77    2.87785E-02   -19.03
   69.00     4.00     -15.68  -28.31  -15.45    0.13571   -10.77  LEFT      1.88783E-01  -165.01    4.40927E-02   -22.00
   70.00     4.00     -15.44  -25.94  -15.07    0.12636   -15.15  LEFT      1.94047E-01  -175.13    5.79537E-02   -22.11
   71.00     4.00     -15.48  -24.44  -14.97    0.08849   -19.07  LEFT      1.93013E-01   174.90    6.88322E-02   -21.21
   72.00     4.00     -15.78  -23.64  -15.12    0.02498   -22.00  LEFT      1.86534E-01   164.18    7.54928E-02   -19.93
   73.00     4.00     -16.22  -23.46  -15.47    0.05975   -23.29  RIGHT     1.77373E-01   152.05    7.70525E-02   -18.57
   74.00     4.00     -16.63  -23.92  -15.89    0.15297   -22.04  RIGHT     1.69155E-01   138.42    7.30558E-02   -17.33
   75.00     4.00     -16.87  -25.14  -16.27    0.22419   -17.51  RIGHT     1.64566E-01   124.09    6.35246E-02   -16.46
   76.00     4.00     -16.92  -27.40  -16.55    0.23146   -10.77  RIGHT     1.63608E-01   110.46    4.89748E-02   -16.44
   77.00     4.00     -16.93  -31.53  -16.78    0.16359    -5.07  RIGHT     1.63520E-01    98.60    3.04330E-02   -19.05
   78.00     4.00     -17.09  -41.10  -17.07    0.04813    -2.33  RIGHT     1.60485E-01    88.77    1.01123E-02   -41.32
   79.00     4.00     -17.59  -37.35  -17.54    0.09242    -2.58  LEFT      1.51462E-01    80.56    1.55699E-02  -163.71
   80.00     4.00     -18.58  -29.78  -18.26    0.25350    -6.18  LEFT      1.35114E-01    73.23    3.72300E-02  -175.22
   81.00     4.00     -20.21  -26.05  -19.21    0.42618   -16.07  LEFT      1.12003E-01    65.75    5.71833E-02  -177.19
   82.00     4.00     -22.66  -23.88  -20.22    0.49989   -38.30  LEFT      8.44850E-02    56.39    7.34465E-02  -177.48
   83.00     4.00     -26.11  -22.64  -21.03    0.31666   -58.82  LEFT      5.67727E-02    41.22    8.46466E-02  -177.26
   84.00     4.00     -30.02  -22.13  -21.48    0.04679   -68.19  LEFT      3.61918E-02    10.89    8.98239E-02  -176.85
   85.00     4.00     -30.98  -22.26  -21.71    0.20337   -73.00  RIGHT     3.24235E-02   -33.60    8.84766E-02  -176.41
   86.00     4.00     -29.40  -23.07  -22.16    0.41820   -76.17  RIGHT     3.89044E-02   -61.40    8.05966E-02  -176.00
   87.00     4.00     -28.80  -24.72  -23.28    0.59722   -78.72  RIGHT     4.16837E-02   -73.98    6.66715E-02  -175.65
   88.00     4.00     -30.11  -27.64  -25.69    0.74067   -81.09  RIGHT     3.58352E-02   -80.06    4.76512E-02  -175.39
   89.00     4.00     -34.68  -33.28  -30.91    0.84756   -83.20  RIGHT     2.11870E-02   -82.99    2.48802E-02  -175.23
    0.00     5.00     -10.19  -31.35  -10.16    0.00000    -5.00  LINEAR    3.54987E-01    74.75    3.10573E-02  -105.25
    1.00     5.00     -10.25  -31.41  -10.22    0.00001    -5.00  LINEAR    3.52625E-01    83.72    3.08504E-02   -96.29
    2.00     5.00     -10.51  -31.67  -10.47    0.00004    -5.00  LEFT      3.42359E-01    91.97    2.99519E-02   -88.06
    3.00     5.00     -10.98  -32.14  -10.95    0.00009    -5.00  LEFT      3.24262E-01    99.53    2.83697E-02   -80.53
    4.00     5.00     -11.70  -32.86  -11.67    0.00017    -5.00  LEFT      2.98437E-01   106.45    2.61147E-02   -73.66
    5.00     5.00     -12.73  -33.89  -12.70    0.00028    -5.00  LEFT      2.64910E-01   112.82    2.31908E-02   -67.36
    6.00     5.00     -14.21  -35.36  -14.18    0.00042    -5.01  LEFT      2.23532E-01   118.74    1.95846E-02   -61.53
    7.00     5.00     -16.39  -37.53  -16.36    0.00059    -5.01  LEFT      1.73935E-01   124.34    1.52601E-02   -56.05
    8.00     5.00     -19.94  -41.06  -19.91    0.00078    -5.02  LEFT      1.15569E-01   129.73    1.01604E-02   -50.78
    9.00     5.00     -27.60  -48.69  -27.57    0.00099    -5.04  LEFT      4.78464E-02   135.07    4.21852E-03   -45.58
   10.00     5.00     -31.76  -52.82  -31.73    0.00120    -5.06  LEFT      2.96353E-02   -39.76    2.62259E-03   139.46
   11.00     5.00     -19.85  -40.87  -19.81    0.00140    -5.08  LEFT      1.16827E-01   -34.28    1.03859E-02   144.81
   12.00     5.00     -14.63  -35.61  -14.60    0.00158    -5.11  LEFT      2.12974E-01   -28.71    1.90351E-02   150.27
   13.00     5.00     -11.19  -32.11  -11.16    0.00174    -5.14  LEFT      3.16413E-01   -22.97    2.84540E-02   155.92
[...]
   16.00   359.00      -5.84  -40.57   -5.84    0.00040     1.05  RIGHT     5.85759E-01    -3.23    1.07459E-02    -4.48
   17.00   359.00      -4.69  -39.34   -4.68    0.00040     1.06  RIGHT     6.69145E-01     3.24    1.23809E-02     2.00
   18.00   359.00      -3.83  -38.41   -3.83    0.00039     1.07  RIGHT     7.38392E-01     9.82    1.37860E-02     8.61
   19.00   359.00      -3.26  -37.75   -3.25    0.00037     1.08  RIGHT     7.88973E-01    16.46    1.48707E-02    15.33
   20.00   359.00      -2.95  -37.36   -2.95    0.00034     1.09  RIGHT     8.17017E-01    23.16    1.55527E-02    22.13
   21.00   359.00      -2.92  -37.24   -2.92    0.00030     1.10  RIGHT     8.19701E-01    29.86    1.57654E-02    28.97
   22.00   359.00      -3.18  -37.41   -3.18    0.00024     1.11  RIGHT     7.95584E-01    36.54    1.54657E-02    35.83
   23.00   359.00      -3.76  -37.89   -3.75    0.00016     1.13  RIGHT     7.44872E-01    43.16    1.46398E-02    42.68
   24.00   359.00      -4.68  -38.71   -4.68    0.00007     1.14  RIGHT     6.69546E-01    49.68    1.33078E-02    49.49
   25.00   359.00      -6.03  -39.96   -6.03    0.00006     1.15  LEFT      5.73357E-01    56.05    1.15262E-02    56.21
   26.00   359.00      -7.91  -41.75   -7.91    0.00021     1.16  LEFT      4.61662E-01    62.23    9.38682E-03    62.82
   27.00   359.00     -10.54  -44.28  -10.54    0.00040     1.18  LEFT      3.41096E-01    68.14    7.01290E-03    69.25
   28.00   359.00     -14.38  -48.03  -14.38    0.00063     1.19  LEFT      2.19103E-01    73.70    4.55226E-03    75.44
   29.00   359.00     -20.91  -54.48  -20.91    0.00093     1.20  LEFT      1.03344E-01    78.76    2.16711E-03    81.30
   30.00   359.00     -61.10  -94.61  -61.10    0.00129     1.21  LEFT      1.01082E-03    84.40    2.13435E-05    87.90
   31.00   359.00     -22.93  -56.41  -22.93    0.00174     1.21  LEFT      8.19191E-02   -93.47    1.73419E-03   -88.74
   32.00   359.00     -18.18  -51.72  -18.18    0.00228     1.20  LEFT      1.41481E-01   -91.49    2.97852E-03   -85.26
   33.00   359.00     -16.25  -49.97  -16.25    0.00286     1.17  LEFT      1.76656E-01   -91.72    3.64108E-03   -83.74
   34.00   359.00     -15.59  -49.75  -15.59    0.00325     1.11  LEFT      1.90650E-01   -95.42    3.73395E-03   -85.86
   35.00   359.00     -15.50  -50.50  -15.49    0.00277     1.01  LEFT      1.92772E-01  -104.20    3.42569E-03   -95.22
   36.00   359.00     -15.20  -51.05  -15.20    0.00053     0.92  LEFT      1.99518E-01  -118.43    3.21450E-03  -116.56
   37.00   359.00     -14.04  -49.42  -14.04    0.00258     0.96  RIGHT     2.28022E-01  -134.23    3.88163E-03  -142.95
   38.00   359.00     -12.19  -46.30  -12.19    0.00433     1.10  RIGHT     2.81904E-01  -146.10    5.55747E-03  -158.80
   39.00   359.00     -10.29  -43.40  -10.29    0.00460     1.24  RIGHT     3.50968E-01  -152.70    7.76026E-03  -164.73
   40.00   359.00      -8.69  -41.13   -8.69    0.00419     1.35  RIGHT     4.22059E-01  -155.43    1.00752E-02  -165.55
   41.00   359.00      -7.50  -39.47   -7.49    0.00353     1.43  RIGHT     4.84200E-01  -155.79    1.22040E-02  -163.85
   42.00   359.00      -6.72  -38.33   -6.72    0.00277     1.50  RIGHT     5.29325E-01  -154.78    1.39162E-02  -160.84
   43.00   359.00      -6.35  -37.65   -6.35    0.00194     1.56  RIGHT     5.52257E-01  -153.05    1.50385E-02  -157.14
   44.00   359.00      -6.38  -37.41   -6.38    0.00101     1.61  RIGHT     5.50677E-01  -151.01    1.54594E-02  -153.08
   45.00   359.00      -6.79  -37.60   -6.79    0.00005     1.65  LEFT      5.25032E-01  -149.00    1.51363E-02  -148.90
   46.00   359.00      -7.60  -38.21   -7.60    0.00130     1.69  LEFT      4.78277E-01  -147.31    1.40980E-02  -144.78
   47.00   359.00      -8.83  -39.30   -8.82    0.00279     1.71  LEFT      4.15440E-01  -146.27    1.24422E-02  -140.92
   48.00   359.00     -10.49  -40.92  -10.49    0.00459     1.70  LEFT      3.43016E-01  -146.33    1.03263E-02  -137.55
   49.00   359.00     -12.63  -43.19  -12.62    0.00667     1.65  LEFT      2.68274E-01  -148.14    7.95324E-03  -135.13
   50.00   359.00     -15.24  -46.30  -15.24    0.00872     1.52  LEFT      1.98526E-01  -152.75    5.55438E-03  -134.58
   51.00   359.00     -18.25  -50.63  -18.25    0.00946     1.27  LEFT      1.40352E-01  -161.63    3.37723E-03  -138.47
   52.00   359.00     -21.34  -56.52  -21.34    0.00607     0.94  LEFT      9.83080E-02  -176.07    1.71407E-03  -155.69
   53.00   359.00     -24.04  -60.76  -24.04    0.00248     0.82  RIGHT     7.21154E-02   165.59    1.05102E-03   155.78
   54.00   359.00     -26.46  -59.66  -26.46    0.01020     1.11  RIGHT     5.45266E-02   148.72    1.19338E-03   120.93
   55.00   359.00     -29.99  -60.49  -29.99    0.01295     1.54  RIGHT     3.63374E-02   136.73    1.08524E-03   111.02
   56.00   359.00     -38.97  -67.92  -38.96    0.01225     1.92  RIGHT     1.29249E-02   129.02    4.61264E-04   108.92
   57.00   359.00     -37.40  -65.37  -37.40    0.00993     2.22  RIGHT     1.54769E-02   -55.72    6.18429E-04   -70.13
   58.00   359.00     -27.94  -55.21  -27.93    0.00674     2.45  RIGHT     4.60208E-02   -59.31    1.99273E-03   -68.29
   59.00   359.00     -23.69  -50.44  -23.68    0.00282     2.63  RIGHT     7.50135E-02   -62.36    3.45147E-03   -65.89
   60.00   359.00     -21.28  -47.63  -21.27    0.00190     2.75  LEFT      9.90569E-02   -65.60    4.76600E-03   -63.33
   61.00   359.00     -19.92  -46.05  -19.91    0.00751     2.79  LEFT      1.15812E-01   -69.65    5.71703E-03   -60.88
   62.00   359.00     -19.29  -45.46  -19.28    0.01381     2.70  LEFT      1.24508E-01   -75.16    6.12074E-03   -58.80
   63.00   359.00     -19.17  -45.85  -19.16    0.01978     2.40  LEFT      1.26219E-01   -82.86    5.85216E-03   -57.56
   64.00   359.00     -19.34  -47.45  -19.33    0.02258     1.84  LEFT      1.23846E-01   -93.38    4.86726E-03   -58.27
   65.00   359.00     -19.51  -50.97  -19.50    0.01776     1.14  LEFT      1.21487E-01  -106.78    3.24416E-03   -65.08
   66.00   359.00     -19.42  -57.35  -19.42    0.00352     0.70  LEFT      1.22740E-01  -121.89    1.55745E-03  -105.77
   67.00   359.00     -19.02  -52.54  -19.01    0.01453     0.87  RIGHT     1.28535E-01  -136.69    2.70950E-03   179.71
   68.00   359.00     -18.48  -46.39  -18.47    0.02854     1.62  RIGHT     1.36716E-01  -149.74    5.49682E-03   165.00
   69.00   359.00     -18.04  -42.72  -18.02    0.03500     2.67  RIGHT     1.43882E-01  -160.95    8.38857E-03   162.06
   70.00   359.00     -17.83  -40.38  -17.81    0.03367     3.81  RIGHT     1.47354E-01  -171.04    1.09854E-02   161.99
   71.00   359.00     -17.91  -38.92  -17.87    0.02452     4.89  RIGHT     1.46073E-01   179.03    1.30032E-02   162.92
   72.00   359.00     -18.23  -38.14  -18.19    0.00718     5.75  RIGHT     1.40725E-01   168.34    1.42166E-02   164.22
   73.00   359.00     -18.69  -37.99  -18.64    0.01747     6.11  LEFT      1.33420E-01   156.23    1.44677E-02   165.61
   74.00   359.00     -19.13  -38.48  -19.08    0.04385     5.62  LEFT      1.26890E-01   142.63    1.36797E-02   166.87
   75.00   359.00     -19.39  -39.71  -19.35    0.06089     4.27  LEFT      1.23133E-01   128.33    1.18647E-02   167.78
   76.00   359.00     -19.46  -41.99  -19.44    0.05963     2.58  LEFT      1.22127E-01   114.72    9.12548E-03   167.82
   77.00   359.00     -19.48  -46.14  -19.47    0.04113     1.24  LEFT      1.21793E-01   102.88    5.65812E-03   165.22
   78.00   359.00     -19.66  -55.73  -19.66    0.01203     0.58  LEFT      1.19290E-01    93.07    1.87627E-03   142.98
   79.00   359.00     -20.18  -52.00  -20.18    0.02311     0.64  RIGHT     1.12373E-01    84.88    2.88350E-03    20.61
   80.00   359.00     -21.19  -44.44  -21.17    0.06393     1.45  RIGHT     1.00074E-01    77.57    6.88317E-03     9.12
   81.00   359.00     -22.83  -40.73  -22.76    0.11311     3.36  RIGHT     8.28285E-02    70.10    1.05559E-02     7.16
   82.00   359.00     -25.29  -38.56  -25.09    0.17238     7.51  RIGHT     6.23921E-02    60.76    1.35394E-02     6.88
   83.00   359.00     -28.76  -37.34  -28.19    0.21256    17.04  RIGHT     4.18755E-02    45.59    1.55851E-02     7.12
   84.00   359.00     -32.68  -36.84  -31.27    0.06052    31.67  RIGHT     2.66668E-02    15.28    1.65208E-02     7.54
   85.00   359.00     -33.64  -36.98  -31.98    0.30792    31.86  LEFT      2.38689E-02   -29.21    1.62584E-02     7.98
   86.00   359.00     -32.06  -37.79  -31.03    0.44416    15.22  LEFT      2.86189E-02   -56.99    1.47996E-02     8.40
   87.00   359.00     -31.47  -39.44  -30.83    0.38802     5.44  LEFT      3.06459E-02   -69.57    1.22356E-02     8.76
   88.00   359.00     -32.79  -42.37  -32.33    0.33014     1.98  LEFT      2.63353E-02   -75.65    8.74139E-03     9.02
   89.00   359.00     -37.35  -48.01  -36.99    0.29287     0.72  LEFT      1.55665E-02   -78.57    4.56304E-03     9.19
    0.00   360.00     -10.16 -999.99  -10.16    0.00000     0.00  LINEAR    3.56343E-01    74.75    3.77503E-14    74.75
    1.00   360.00     -10.26 -999.99  -10.26    0.00000     0.00  LINEAR    3.52225E-01    83.81    3.73138E-14    83.80
    2.00   360.00     -10.56 -999.99  -10.56    0.00000     0.00  LINEAR    3.40195E-01    92.15    3.60389E-14    92.12
    3.00   360.00     -11.08 -999.99  -11.08    0.00000     0.00  LINEAR    3.20444E-01    99.79    3.39479E-14    99.73
    4.00   360.00     -11.85 -999.99  -11.85    0.00000     0.00  LINEAR    2.93195E-01   106.80    3.10663E-14   106.69
    5.00   360.00     -12.94 -999.99  -12.94    0.00000     0.00  LINEAR    2.58593E-01   113.26    2.74116E-14   113.07
    6.00   360.00     -14.48 -999.99  -14.48    0.00000     0.00  LINEAR    2.16614E-01   119.26    2.29806E-14   118.99
    7.00   360.00     -16.74 -999.99  -16.74    0.00000     0.00  LINEAR    1.67027E-01   124.94    1.77442E-14   124.55
    8.00   360.00     -20.41 -999.99  -20.41    0.00000     0.00  LINEAR    1.09434E-01   130.42    1.16498E-14   129.90
    9.00   360.00     -28.44 -999.99  -28.44    0.00000     0.00  LINEAR    4.34159E-02   135.84    4.63511E-15   135.19
   10.00   360.00     -31.30 -999.99  -31.30    0.00000     0.00  LINEAR    3.12517E-02   -38.91    3.34885E-15   -39.69
   11.00   360.00     -20.03 -999.99  -20.03    0.00000     0.00  LINEAR    1.14351E-01   -33.35    1.23095E-14   -34.26
   12.00   360.00     -14.96 -999.99  -14.96    0.00000     0.00  LINEAR    2.04990E-01   -27.71    2.21852E-14   -28.73
   13.00   360.00     -11.61 -999.99  -11.61    0.00000     0.00  LINEAR    3.01436E-01   -21.89    3.28234E-14   -23.00
   14.00   360.00      -9.13 -999.99   -9.13    0.00000     0.00  LINEAR    4.01039E-01   -15.89    4.39676E-14   -17.08
   15.00   360.00      -7.21 -999.99   -7.21    0.00000     0.00  LINEAR    5.00273E-01    -9.72    5.52565E-14   -10.95
   16.00   360.00      -5.71 -999.99   -5.71    0.00000     0.00  LINEAR    5.94884E-01    -3.39    6.62349E-14    -4.64
   17.00   360.00      -4.54 -999.99   -4.54    0.00000     0.00  LINEAR    6.80133E-01     3.07    7.63758E-14     1.83
   18.00   360.00      -3.68 -999.99   -3.68    0.00000     0.00  LINEAR    7.51136E-01     9.63    8.51139E-14     8.43
   19.00   360.00      -3.10 -999.99   -3.10    0.00000     0.00  LINEAR    8.03244E-01    16.27    9.18857E-14    15.14
   20.00   360.00      -2.79 -999.99   -2.79    0.00000     0.00  LINEAR    8.32464E-01    22.95    9.61767E-14    21.92
   21.00   360.00      -2.75 -999.99   -2.75    0.00000     0.00  LINEAR    8.35853E-01    29.64    9.75689E-14    28.76
   22.00   360.00      -3.01 -999.99   -3.01    0.00000     0.00  LINEAR    8.11881E-01    36.31    9.57871E-14    35.61
   23.00   360.00      -3.57 -999.99   -3.57    0.00000     0.00  LINEAR    7.60689E-01    42.92    9.07381E-14    42.44
   24.00   360.00      -4.49 -999.99   -4.49    0.00000     0.00  LINEAR    6.84238E-01    49.43    8.25399E-14    49.24
   25.00   360.00      -5.83 -999.99   -5.83    0.00000     0.00  LINEAR    5.86311E-01    55.79    7.15354E-14    55.95
   26.00   360.00      -7.71 -999.99   -7.71    0.00000     0.00  LINEAR    4.72348E-01    61.96    5.82891E-14    62.54
   27.00   360.00     -10.34 -999.99  -10.34    0.00000     0.00  LINEAR    3.49116E-01    67.86    4.35634E-14    68.96
   28.00   360.00     -14.18 -999.99  -14.18    0.00000     0.00  LINEAR    2.24237E-01    73.40    2.82760E-14    75.14
   29.00   360.00     -20.73 -999.99  -20.73    0.00000     0.00  LINEAR    1.05577E-01    78.46    1.34368E-14    80.99
   30.00   360.00     -66.48 -999.99  -66.48    0.00000     0.00  LINEAR    5.44273E-04    86.86    6.97492E-17    90.37
   31.00   360.00     -22.64 -999.99  -22.64    0.00000     0.00  LINEAR    8.46843E-02   -93.82    1.08804E-14   -89.09
   32.00   360.00     -17.91 -999.99  -17.91    0.00000     0.00  LINEAR    1.45981E-01   -91.84    1.86522E-14   -85.61
   33.00   360.00     -15.98 -999.99  -15.98    0.00000     0.00  LINEAR    1.82247E-01   -92.09    2.27978E-14   -84.11
   34.00   360.00     -15.32 -999.99  -15.32    0.00000     0.00  LINEAR    1.96737E-01   -95.81    2.33855E-14   -86.25
   35.00   360.00     -15.22 -999.99  -15.22    0.00000     0.00  LINEAR    1.99011E-01  -104.59    2.14640E-14   -95.61
   36.00   360.00     -14.92 -999.99  -14.92    0.00000     0.00  LINEAR    2.06078E-01  -118.83    2.01509E-14  -116.96
   37.00   360.00     -13.75 -999.99  -13.75    0.00000     0.00  LINEAR    2.35644E-01  -134.65    2.43459E-14  -143.38
   38.00   360.00     -11.90 -999.99  -11.90    0.00000     0.00  LINEAR    2.91486E-01  -146.54    3.48759E-14  -159.24
   39.00   360.00     -10.00 -999.99  -10.00    0.00000     0.00  LINEAR    3.63098E-01  -153.15    4.87263E-14  -165.18
   40.00   360.00      -8.39 -999.99   -8.39    0.00000     0.00  LINEAR    4.36884E-01  -155.89    6.32959E-14  -166.01
   41.00   360.00      -7.19 -999.99   -7.19    0.00000     0.00  LINEAR    5.01477E-01  -156.26    7.67111E-14  -164.33
   42.00   360.00      -6.41 -999.99   -6.41    0.00000     0.00  LINEAR    5.48500E-01  -155.27    8.75195E-14  -161.33
   43.00   360.00      -6.04 -999.99   -6.04    0.00000     0.00  LINEAR    5.72553E-01  -153.55    9.46256E-14  -157.64
   44.00   360.00      -6.06 -999.99   -6.06    0.00000     0.00  LINEAR    5.71193E-01  -151.53    9.73219E-14  -153.60
   45.00   360.00      -6.47 -999.99   -6.47    0.00000     0.00  LINEAR    5.44845E-01  -149.53    9.53322E-14  -149.43
   46.00   360.00      -7.28 -999.99   -7.28    0.00000     0.00  LINEAR    4.96542E-01  -147.85    8.88314E-14  -145.33
   47.00   360.00      -8.50 -999.99   -8.50    0.00000     0.00  LINEAR    4.31477E-01  -146.83    7.84292E-14  -141.47
   48.00   360.00     -10.16 -999.99  -10.16    0.00000     0.00  LINEAR    3.56384E-01  -146.90    6.51147E-14  -138.12
   49.00   360.00     -12.29 -999.99  -12.29    0.00000     0.00  LINEAR    2.78812E-01  -148.73    5.01658E-14  -135.71
   50.00   360.00     -14.90 -999.99  -14.90    0.00000     0.00  LINEAR    2.06370E-01  -153.34    3.50425E-14  -135.18
   51.00   360.00     -17.91 -999.99  -17.91    0.00000     0.00  LINEAR    1.45912E-01  -162.24    2.13091E-14  -139.07
   52.00   360.00     -21.01 -999.99  -21.01    0.00000     0.00  LINEAR    1.02194E-01  -176.69    1.08142E-14  -156.31
   53.00   360.00     -23.70 -999.99  -23.70    0.00000     0.00  LINEAR    7.49348E-02   164.96    6.62825E-15   155.15
   54.00   360.00     -26.14 -999.99  -26.14    0.00000     0.00  LINEAR    5.65935E-02   148.09    7.51738E-15   120.29
   55.00   360.00     -29.70 -999.99  -29.70    0.00000     0.00  LINEAR    3.75895E-02   136.10    6.81347E-15   110.39
   56.00   360.00     -38.84 -999.99  -38.84    0.00000     0.00  LINEAR    1.31119E-02   128.45    2.84001E-15   108.35
   57.00   360.00     -36.80 -999.99  -36.80    0.00000     0.00  LINEAR    1.65890E-02   -56.52    4.02307E-15   -70.94
   58.00   360.00     -27.48 -999.99  -27.48    0.00000     0.00  LINEAR    4.85365E-02   -60.06    1.27554E-14   -69.04
   59.00   360.00     -23.26 -999.99  -23.26    0.00000     0.00  LINEAR    7.88681E-02   -63.11    2.20240E-14   -66.64
   60.00   360.00     -20.85 -999.99  -20.85    0.00000     0.00  LINEAR    1.04027E-01   -66.35    3.03771E-14   -64.09
   61.00   360.00     -19.50 -999.99  -19.50    0.00000     0.00  LINEAR    1.21563E-01   -70.41    3.64207E-14   -61.64
   62.00   360.00     -18.87 -999.99  -18.87    0.00000     0.00  LINEAR    1.30664E-01   -75.94    3.89845E-14   -59.58
   63.00   360.00     -18.76 -999.99  -18.76    0.00000     0.00  LINEAR    1.32452E-01   -83.65    3.72720E-14   -58.35
   64.00   360.00     -18.92 -999.99  -18.92    0.00000     0.00  LINEAR    1.29967E-01   -94.18    3.10003E-14   -59.07
   65.00   360.00     -19.09 -999.99  -19.09    0.00000     0.00  LINEAR    1.27502E-01  -107.58    2.06643E-14   -65.88
   66.00   360.00     -19.00 -999.99  -19.00    0.00000     0.00  LINEAR    1.28832E-01  -122.71    9.92164E-15  -106.59
   67.00   360.00     -18.59 -999.99  -18.59    0.00000     0.00  LINEAR    1.34933E-01  -137.51    1.72630E-14   178.88
   68.00   360.00     -18.06 -999.99  -18.06    0.00000     0.00  LINEAR    1.43541E-01  -150.58    3.50269E-14   164.16
   69.00   360.00     -17.61 -999.99  -17.61    0.00000     0.00  LINEAR    1.51088E-01  -161.79    5.34617E-14   161.22
   70.00   360.00     -17.40 -999.99  -17.40    0.00000     0.00  LINEAR    1.54757E-01  -171.89    7.00219E-14   161.13
   71.00   360.00     -17.48 -999.99  -17.48    0.00000     0.00  LINEAR    1.53434E-01   178.16    8.28965E-14   162.05
   72.00   360.00     -17.80 -999.99  -17.80    0.00000     0.00  LINEAR    1.47838E-01   167.46    9.06448E-14   163.35
   73.00   360.00     -18.26 -999.99  -18.26    0.00000     0.00  LINEAR    1.40185E-01   155.35    9.22588E-14   164.73
   74.00   360.00     -18.70 -999.99  -18.70    0.00000     0.00  LINEAR    1.33341E-01   141.74    8.72457E-14   165.98
   75.00   360.00     -18.96 -999.99  -18.96    0.00000     0.00  LINEAR    1.29410E-01   127.43    7.56795E-14   166.88
   76.00   360.00     -19.03 -999.99  -19.03    0.00000     0.00  LINEAR    1.28367E-01   113.81    5.82144E-14   166.91
   77.00   360.00     -19.05 -999.99  -19.05    0.00000     0.00  LINEAR    1.28031E-01   101.97    3.60990E-14   164.31
   78.00   360.00     -19.23 -999.99  -19.23    0.00000     0.00  LINEAR    1.25413E-01    92.15    1.19719E-14   142.07
   79.00   360.00     -19.75 -999.99  -19.75    0.00000     0.00  LINEAR    1.18152E-01    83.96    1.84005E-14    19.69
   80.00   360.00     -20.75 -999.99  -20.75    0.00000     0.00  LINEAR    1.05229E-01    76.64    4.39275E-14     8.19
   81.00   360.00     -22.40 -999.99  -22.40    0.00000     0.00  LINEAR    8.71026E-02    69.17    6.73718E-14     6.22
   82.00   360.00     -24.86 -999.99  -24.86    0.00000     0.00  LINEAR    6.56162E-02    59.82    8.64194E-14     5.94
   83.00   360.00     -28.32 -999.99  -28.32    0.00000     0.00  LINEAR    4.40422E-02    44.65    9.94827E-14     6.18
   84.00   360.00     -32.24 -999.99  -32.24    0.00000     0.00  LINEAR    2.80481E-02    14.33    1.05462E-13     6.59
   85.00   360.00     -33.20 -999.99  -33.20    0.00000     0.00  LINEAR    2.51063E-02   -30.15    1.03791E-13     7.04
   86.00   360.00     -31.62 -999.99  -31.62    0.00000     0.00  LINEAR    3.01037E-02   -57.94    9.44815E-14     7.45
   87.00   360.00     -31.03 -999.99  -31.03    0.00000     0.00  LINEAR    3.22368E-02   -70.52    7.81150E-14     7.80
   88.00   360.00     -32.35 -999.99  -32.35    0.00000     0.00  LINEAR    2.77030E-02   -76.60    5.58085E-14     8.07
   89.00   360.00     -36.91 -999.99  -36.91    0.00000     0.00  LINEAR    1.63752E-02   -79.53    2.91326E-14     8.24






 ***** INPUT LINE  6  EN   0    0    0    0  0.00000E+00  0.00000E+00  0.00000E+00  0.00000E+00  0.00000E+00  0.00000E+00

 RUN TIME =     0.990
